
#######################################################################
#
#                 Cambridge Crystallographic Data Centre
#                                CCDC 
#
#######################################################################
#
# If this CIF has been generated from an entry in the Cambridge 
# Structural Database, then it will include bibliographic, chemical, 
# crystal, experimental, refinement or atomic coordinate data resulting 
# from the CCDC's data processing and validation procedures.
#
#######################################################################

data_FAWCEN
_chemical_name_common            ZIF-8
_chemical_formula_moiety         '(C48 H60 N24 Zn6)n,8n(H2 O1)'
_chemical_name_systematic        
'catena-[dodecakis(\m~2~-2-Methylimidazolyl)-hexa-zinc(ii) octahydrate]'
_symmetry_cell_setting           cubic
_symmetry_space_group_name_H-M   'I -4 3 m'
_symmetry_Int_Tables_number      217
_space_group_name_Hall           'I -4 2 3'
loop_
_symmetry_equiv_pos_site_id
_symmetry_equiv_pos_as_xyz
1 x,y,z
2 -x,-y,z
3 -x,y,-z
4 x,-y,-z
5 z,x,y
6 z,-x,-y
7 -z,-x,y
8 -z,x,-y
9 y,z,x
10 -y,z,-x
11 y,-z,-x
12 -y,-z,x
13 y,x,z
14 -y,-x,z
15 y,-x,-z
16 -y,x,-z
17 x,z,y
18 -x,z,-y
19 -x,-z,y
20 x,-z,-y
21 z,y,x
22 z,-y,-x
23 -z,y,-x
24 -z,-y,x
25 1/2+x,1/2+y,1/2+z
26 1/2-x,1/2-y,1/2+z
27 1/2-x,1/2+y,1/2-z
28 1/2+x,1/2-y,1/2-z
29 1/2+z,1/2+x,1/2+y
30 1/2+z,1/2-x,1/2-y
31 1/2-z,1/2-x,1/2+y
32 1/2-z,1/2+x,1/2-y
33 1/2+y,1/2+z,1/2+x
34 1/2-y,1/2+z,1/2-x
35 1/2+y,1/2-z,1/2-x
36 1/2-y,1/2-z,1/2+x
37 1/2+y,1/2+x,1/2+z
38 1/2-y,1/2-x,1/2+z
39 1/2+y,1/2-x,1/2-z
40 1/2-y,1/2+x,1/2-z
41 1/2+x,1/2+z,1/2+y
42 1/2-x,1/2+z,1/2-y
43 1/2-x,1/2-z,1/2+y
44 1/2+x,1/2-z,1/2-y
45 1/2+z,1/2+y,1/2+x
46 1/2+z,1/2-y,1/2-x
47 1/2-z,1/2+y,1/2-x
48 1/2-z,1/2-y,1/2+x
_cell_length_a                   16.8509(3)
_cell_length_b                   16.8509(3)
_cell_length_c                   16.8509(3)
_cell_angle_alpha                90
_cell_angle_beta                 90
_cell_angle_gamma                90
_cell_volume                     4784.86
_cell_formula_units_Z            2
loop_
_atom_site_label
_atom_site_type_symbol
_atom_site_fract_x
_atom_site_fract_y
_atom_site_fract_z
Zn1 Zn 0.5000 0.0000 -0.2500
C1 C 0.5053(3) 0.1240(10) -0.1240(3)
N1 N 0.4643(3) 0.0883(4) -0.1827(4)
C2 C 0.3912(5) 0.1276(4) -0.1840(6)
H1 H 0.3494 0.1165 -0.2183
C3 C 0.5861(6) 0.0985(6) -0.0985(6)
Zn2 Zn 0.5000 0.2500 0.0000
Zn3 Zn 0.5000 -0.2500 0.0000
Zn4 Zn 0.7500 0.0000 -0.5000
Zn5 Zn 0.2500 0.0000 -0.5000
Zn6 Zn 0.5000 0.0000 0.2500
Zn7 Zn 0.7500 0.5000 0.0000
Zn8 Zn 0.2500 0.5000 0.0000
Zn9 Zn 0.2500 -0.5000 0.0000
Zn10 Zn 0.7500 -0.5000 0.0000
Zn11 Zn 0.5000 0.0000 -0.7500
Zn12 Zn 1.0000 -0.2500 -0.5000
C4 C 0.4947(3) -0.1240(10) -0.1240(3)
C5 C 0.6240(3) -0.0053(3) -0.3760(10)
C6 C 0.3760(3) 0.0053(3) -0.3760(10)
C7 C 0.4947(3) 0.1240(10) 0.1240(3)
C8 C 0.6240(10) 0.3760(3) 0.0053(3)
C9 C 0.3760(10) 0.3760(3) -0.0053(3)
C10 C 0.5053(3) -0.1240(10) 0.1240(3)
C11 C 0.3760(10) -0.3760(3) 0.0053(3)
C12 C 0.6240(10) -0.3760(3) -0.0053(3)
C13 C 0.6240(3) 0.0053(3) -0.6240(10)
C14 C 0.8760(10) -0.1240(3) -0.5053(3)
N2 N 0.4643(3) 0.1827(4) -0.0883(4)
N3 N 0.5357(3) -0.0883(4) -0.1827(4)
N4 N 0.5357(3) -0.1827(4) -0.0883(4)
N5 N 0.5883(4) 0.0357(3) -0.3173(4)
N6 N 0.6827(4) 0.0357(3) -0.4117(4)
N7 N 0.4117(4) -0.0357(3) -0.3173(4)
N8 N 0.3173(4) -0.0357(3) -0.4117(4)
N9 N 0.5357(3) 0.1827(4) 0.0883(4)
N10 N 0.5357(3) 0.0883(4) 0.1827(4)
N11 N 0.5883(4) 0.3173(4) -0.0357(3)
N12 N 0.6827(4) 0.4117(4) -0.0357(3)
N13 N 0.4117(4) 0.3173(4) 0.0357(3)
N14 N 0.3173(4) 0.4117(4) 0.0357(3)
N15 N 0.4643(3) -0.1827(4) 0.0883(4)
N16 N 0.4643(3) -0.0883(4) 0.1827(4)
N17 N 0.4117(4) -0.3173(4) -0.0357(3)
N18 N 0.3173(4) -0.4117(4) -0.0357(3)
N19 N 0.5883(4) -0.3173(4) 0.0357(3)
N20 N 0.6827(4) -0.4117(4) 0.0357(3)
N21 N 0.6827(4) -0.0357(3) -0.5883(4)
N22 N 0.5883(4) -0.0357(3) -0.6827(4)
N23 N 0.8173(4) -0.0883(4) -0.4643(3)
N24 N 0.9117(4) -0.1827(4) -0.4643(3)
N25 N 0.8173(4) 0.0883(4) -0.5357(3)
N26 N 0.3173(4) 0.0357(3) -0.5883(4)
N27 N 0.1827(4) 0.0883(4) -0.4643(3)
N28 N 0.1827(4) -0.0883(4) -0.5357(3)
N29 N 0.4117(4) 0.0357(3) 0.3173(4)
N30 N 0.5883(4) -0.0357(3) 0.3173(4)
C15 C 0.3912(5) 0.1840(6) -0.1276(4)
C16 C 0.6088(5) -0.1276(4) -0.1840(6)
C17 C 0.6088(5) -0.1840(6) -0.1276(4)
C18 C 0.6276(4) 0.1088(5) -0.3160(6)
C19 C 0.6840(6) 0.1088(5) -0.3724(4)
C20 C 0.3724(4) -0.1088(5) -0.3160(6)
C21 C 0.3160(6) -0.1088(5) -0.3724(4)
C22 C 0.6088(5) 0.1840(6) 0.1276(4)
C23 C 0.6088(5) 0.1276(4) 0.1840(6)
C24 C 0.6276(4) 0.3160(6) -0.1088(5)
C25 C 0.6840(6) 0.3724(4) -0.1088(5)
C26 C 0.3724(4) 0.3160(6) 0.1088(5)
C27 C 0.3160(6) 0.3724(4) 0.1088(5)
C28 C 0.3912(5) -0.1840(6) 0.1276(4)
C29 C 0.3912(5) -0.1276(4) 0.1840(6)
C30 C 0.3724(4) -0.3160(6) -0.1088(5)
C31 C 0.3160(6) -0.3724(4) -0.1088(5)
C32 C 0.6276(4) -0.3160(6) 0.1088(5)
C33 C 0.6840(6) -0.3724(4) 0.1088(5)
C34 C 0.6840(6) -0.1088(5) -0.6276(4)
C35 C 0.6276(4) -0.1088(5) -0.6840(6)
C36 C 0.8160(6) -0.1276(4) -0.3912(5)
C37 C 0.8724(4) -0.1840(6) -0.3912(5)
H2 H 0.3494 0.2183 -0.1165
H3 H 0.6506 -0.1165 -0.2183
H4 H 0.6506 -0.2183 -0.1165
H5 H 0.6165 0.1506 -0.2817
H6 H 0.7183 0.1506 -0.3835
H7 H 0.3835 -0.1506 -0.2817
H8 H 0.2817 -0.1506 -0.3835
H9 H 0.6506 0.2183 0.1165
H10 H 0.6506 0.1165 0.2183
H11 H 0.6165 0.2817 -0.1506
H12 H 0.7183 0.3835 -0.1506
H13 H 0.3835 0.2817 0.1506
H14 H 0.2817 0.3835 0.1506
H15 H 0.3494 -0.2183 0.1165
H16 H 0.3494 -0.1165 0.2183
H17 H 0.3835 -0.2817 -0.1506
H18 H 0.2817 -0.3835 -0.1506
H19 H 0.6165 -0.2817 0.1506
H20 H 0.7183 -0.3835 0.1506
H21 H 0.7183 -0.1506 -0.6165
H22 H 0.6165 -0.1506 -0.7183
H23 H 0.7817 -0.1165 -0.3494
H24 H 0.8835 -0.2183 -0.3494
C38 C 0.4139(6) -0.0985(6) -0.0985(6)
C39 C 0.5985(6) -0.0861(6) -0.4015(6)
C40 C 0.4015(6) 0.0861(6) -0.4015(6)
C41 C 0.4139(6) 0.0985(6) 0.0985(6)
C42 C 0.5985(6) 0.4015(6) 0.0861(6)
C43 C 0.4015(6) 0.4015(6) -0.0861(6)
C44 C 0.5861(6) -0.0985(6) 0.0985(6)
C45 C 0.4015(6) -0.4015(6) 0.0861(6)
C46 C 0.5985(6) -0.4015(6) -0.0861(6)
C47 C 0.5985(6) 0.0861(6) -0.5985(6)
C48 C 0.9015(6) -0.0985(6) -0.5861(6)
loop_
_geom_bond_atom_site_label_1
_geom_bond_atom_site_label_2
_geom_bond_site_symmetry_1
_geom_bond_site_symmetry_2
Zn1 N1 1_555 1_555
C1 N1 1_555 1_555
N1 C2 1_555 1_555
C2 H1 1_555 1_555
C3 C1 1_555 1_555
Zn2 N2 1_555 1_555
Zn3 N4 1_555 1_555
Zn4 N6 1_555 1_555
Zn5 N8 1_555 1_555
Zn6 N10 1_555 1_555
Zn7 N12 1_555 1_555
Zn8 N14 1_555 1_555
Zn9 N18 1_555 1_555
Zn10 N20 1_555 1_555
Zn11 N22 1_555 1_555
Zn12 N24 1_555 1_555
C4 N3 1_555 1_555
C5 N5 1_555 1_555
C6 N7 1_555 1_555
C7 N9 1_555 1_555
C8 N11 1_555 1_555
C9 N13 1_555 1_555
C10 N15 1_555 1_555
C11 N17 1_555 1_555
C12 N19 1_555 1_555
C13 N21 1_555 1_555
C14 N23 1_555 1_555
N2 C1 1_555 1_555
N3 Zn1 1_555 1_555
N4 C4 1_555 1_555
N5 Zn1 1_555 1_555
N6 C5 1_555 1_555
N7 Zn1 1_555 1_555
N8 C6 1_555 1_555
N9 Zn2 1_555 1_555
N10 C7 1_555 1_555
N11 Zn2 1_555 1_555
N12 C8 1_555 1_555
N13 Zn2 1_555 1_555
N14 C9 1_555 1_555
N15 Zn3 1_555 1_555
N16 Zn6 1_555 1_555
N17 Zn3 1_555 1_555
N18 C11 1_555 1_555
N19 Zn3 1_555 1_555
N20 C12 1_555 1_555
N21 Zn4 1_555 1_555
N22 C13 1_555 1_555
N23 Zn4 1_555 1_555
N24 C14 1_555 1_555
N25 Zn4 1_555 1_555
N26 Zn5 1_555 1_555
N27 Zn5 1_555 1_555
N28 Zn5 1_555 1_555
N29 Zn6 1_555 1_555
N30 Zn6 1_555 1_555
C15 C2 1_555 1_555
C16 N3 1_555 1_555
C17 N4 1_555 1_555
C18 N5 1_555 1_555
C19 N6 1_555 1_555
C20 N7 1_555 1_555
C21 N8 1_555 1_555
C22 N9 1_555 1_555
C23 N10 1_555 1_555
C24 N11 1_555 1_555
C25 N12 1_555 1_555
C26 N13 1_555 1_555
C27 N14 1_555 1_555
C28 N15 1_555 1_555
C29 N16 1_555 1_555
C30 N17 1_555 1_555
C31 N18 1_555 1_555
C32 N19 1_555 1_555
C33 N20 1_555 1_555
C34 N21 1_555 1_555
C35 N22 1_555 1_555
C36 N23 1_555 1_555
C37 N24 1_555 1_555
H2 C15 1_555 1_555
H3 C16 1_555 1_555
H4 C17 1_555 1_555
H5 C18 1_555 1_555
H6 C19 1_555 1_555
H7 C20 1_555 1_555
H8 C21 1_555 1_555
H9 C22 1_555 1_555
H10 C23 1_555 1_555
H11 C24 1_555 1_555
H12 C25 1_555 1_555
H13 C26 1_555 1_555
H14 C27 1_555 1_555
H15 C28 1_555 1_555
H16 C29 1_555 1_555
H17 C30 1_555 1_555
H18 C31 1_555 1_555
H19 C32 1_555 1_555
H20 C33 1_555 1_555
H21 C34 1_555 1_555
H22 C35 1_555 1_555
H23 C36 1_555 1_555
H24 C37 1_555 1_555
C38 C4 1_555 1_555
C39 C5 1_555 1_555
C40 C6 1_555 1_555
C41 C7 1_555 1_555
C42 C8 1_555 1_555
C43 C9 1_555 1_555
C44 C10 1_555 1_555
C45 C11 1_555 1_555
C46 C12 1_555 1_555
C47 C13 1_555 1_555
C48 C14 1_555 1_555
C10 N16 1_555 1_555
N2 C15 1_555 1_555
C16 C17 1_555 1_555
C18 C19 1_555 1_555
C20 C21 1_555 1_555
C22 C23 1_555 1_555
C24 C25 1_555 1_555
C26 C27 1_555 1_555
C28 C29 1_555 1_555
C30 C31 1_555 1_555
C32 C33 1_555 1_555
C34 C35 1_555 1_555
C36 C37 1_555 1_555

#END
