# CIF-file generated for -175.136_T2_14_6654                     

#==============================================================================
data_global
#==============================================================================

# 0. AUDIT DETAILS

_audit_creation_date                 'Nov 29 18:01:20 2016'
_audit_creation_method               'PLATON <TABLE ACC> option' 
_audit_update_record                
;
;

#===============================================================================

# 1. SUBMISSION DETAILS

_publ_contact_author_name           # Name of author for correspondence
;
;
_publ_contact_author_address        # address of author for correspondence
;
;

_publ_contact_author_email           ?
_publ_contact_author_fax             ?
_publ_contact_author_phone           ?

_publ_requested_journal              'Acta Crystallographica C' 
# Publication choise FI, CI or EI for Inorganic
#                    FM, CM or EM for Metal-organic
#                    FO, CO or EO for Organic
_publ_requested_category             ?
_publ_requested_coeditor_name        ?

_publ_contact_letter                # Include date of submission
;
Date of submission ?

Please consider this CIF submission for publication as a
Regular Structural Paper in Acta Crystallographica C. 
;

#===============================================================================

# 2. PROCESSING SUMMARY (JOURNAL OFFICE ONLY)

_journal_date_recd_electronic        ?

_journal_date_to_coeditor            ?
_journal_date_from_coeditor          ?
_journal_date_accepted               ?

_journal_date_printers_first         ?
_journal_date_printers_final         ?
_journal_date_proofs_out             ?
_journal_date_proofs_in              ?

_journal_coeditor_name               ?
_journal_coeditor_code               ?
_journal_coeditor_notes             
;
;

_journal_techeditor_code             ?
_journal_techeditor_notes           
;
;

_journal_coden_ASTM                  ?
_journal_name_full                   ?
_journal_year                        ?
_journal_volume                      ?
_journal_issue                       ?
_journal_page_first                  ?
_journal_page_last                   ?


_journal_suppl_publ_number           ?
_journal_suppl_publ_pages            ?


#===============================================================================

# 3. TITLE AND AUTHOR LIST

_publ_section_title                 
;
;
_publ_section_title_footnote        
;
;

# The loop structure below should contain the names and adresses of all
# authors, in the required order of publication. Repeat as necessary.


loop_
_publ_author_name                   
_publ_author_footnote               
_publ_author_address                
'?' # author name
;   # author related footnote
;
;   # Address of this author
;

#===============================================================================

# 4. TEXT

_publ_section_synopsis              
;
 ?
;
_publ_section_abstract              
;
 ?
;

# Insert blank lines between paragraphs

_publ_section_comment               
;
;
_publ_section_exptl_prep            
;
 ?
;
_publ_section_exptl_refinement      
;
 ?
;

# Insert blank lines between references

_publ_section_references            
;
 Allen, F.H. (2002).
   Acta Cryst. B58, 380-388.

 Altomare, A., Burla, M.C., Camalli, M., Cascarano, G.L., Giacovazzo, C.
   Guagliardi, A., Moliterni, A.G.G., Polidori, G. & Spagna, R.
   (1999) J. Appl. Cryst. 32, 115-119.

 Beurskens, P.T., Beurskens, G., de Gelder, R., Garc\'ia-Granda, S.,
 Gould, R.O., Israel, R. & Smits, J.M.M. (1999) The DIRDIF99 Program System,
   Technical Report of the Crystallography Laboratory,
   University of Nijmegen, The Netherlands.

 Boer, J.L. de & Duisenberg, A.J.M. (1984). Acta Cryst. A40, C-410.

 Boeyens, J.C.A. (1978). J.Cryst.Mol.Struct. 8, 317-320.

 Cremer, D. & Pople, J.A. (1975). J. Am. Chem. Soc. 97, 1354-1358.

 Duisenberg, A.J.M. (1992). J. Appl. Cryst. 25, 92-96.

 Duisenberg, A.J.M., Kroon-Batenburg, L.M.J. & Schreurs, A.M.M. (2003).
   J. Appl. Cryst. 36, 220-229.

 Enraf-Nonius (1989). CAD-4 Software. Version 5. Enraf-Nonius, Delft,
   The Netherlands.

 Flack, H.D. (1983). Acta Cryst. A39, 876-881.

 Hooft, R.W.W. (1998). Collect Software, Nonius B.V., Delft, The Netherlands.

 LePage, Y. (1987). J. Appl. Cryst. 20, 264-269.

 Mackay, A.L. (1984). Acta Cryst. A40, 165-166.

 Meulenaer, J. de & Tompa, H. (1965). Acta Cryst. 19, 1014-1018.

 North, A.C.T., Phillips, D.C. & Mathews, F.S. (1968).
  Acta Cryst. A24, 351-359.

 Otwinowski, Z. & Minor, W. (1997). Methods in Enzymology, Vol. 276,
   Macromolecular Crystallography, Part A, edited by C.W. Carter &
    R.M. Sweet, pp. 307-326. London: Academic Press.

 Sheldrick, G.M. (1986). SHELXS86. University of G\"ottingen, Germany.

 Sheldrick, G.M. (1993). SHELXL93. University of G\"ottingen, Germany.

 Sheldrick, G.M. (1997). SHELXS97. University of G\"ottingen, Germany.

 Sheldrick, G.M. (1997). SHELXL97. University of G\"ottingen, Germany.

 Sluis, P. van der & Spek, A.L. (1990). Acta Cryst. A46, 194-201.

 Spek, A.L. (1987). Acta Cryst. C43, 1233-1235.

 Spek, A.L. (1988). J. Appl. Cryst. 21, 578-579.

 Spek, A.L. (1994). Am. Crystallogr. Assoc.-Abstracts, 22, 66.

 Spek, A.L. (1997). HELENA, Program for Datareduction, Utrecht
   University, The Netherlands.

 Spek, A.L. (2003). J. Appl. Cryst. 36, 7-13.

 Wilson, A.J.C. (1992). Ed. International Tables for Crystallography,
   Volume C, Kluwer Academic Publishers, Dordrecht, The Netherlands.
;
_publ_section_acknowledgements      
;
;
_publ_section_figure_captions       
; View of the title compound with the atom numbering scheme.
Displacement ellipsoids for non-H atoms are drawn at the 50% probability level.
;

#===============================================================================

data_-175.136_t2_14_6654             

#===============================================================================

# 5. CHEMICAL DATA

_chemical_name_systematic           
;
;
_chemical_name_common                ?
_chemical_melting_point              ?
_chemical_formula_moiety            
'C23 H14 N6 O3'
# Ex: 'C12 H16 N2 O6, H2 O' and '(Cd 2+)3, (C6 N6 Cr 3-)2, 2(H2 O)' 
_chemical_formula_structural         ?
_chemical_formula_sum               
'C23 H14 N6 O3'
_chemical_formula_iupac              ?
_chemical_formula_weight                422.40
_chemical_compound_source           'see text'

loop_
_atom_type_symbol                   
_atom_type_description              
_atom_type_scat_dispersion_real     
_atom_type_scat_dispersion_imag     
_atom_type_scat_source              
 O   O    0.0106    0.0060
 'International Tables Vol C Tables 4.2.6.8 and 6.1.1.4'
 N   N    0.0061    0.0033
 'International Tables Vol C Tables 4.2.6.8 and 6.1.1.4'
 H   H    0.0000    0.0000
 'International Tables Vol C Tables 4.2.6.8 and 6.1.1.4'
 C   C    0.0033    0.0016
 'International Tables Vol C Tables 4.2.6.8 and 6.1.1.4'

#===============================================================================

# 6. CRYSTAL DATA

_symmetry_cell_setting                  Triclinic
_symmetry_space_group_name_Hall      'P 1'
_symmetry_space_group_name_H-M       'P 1'
_symmetry_Int_Tables_number                  1

loop_
_symmetry_equiv_pos_site_id         
_symmetry_equiv_pos_as_xyz          
   1 x,y,z                         

_cell_length_a                            12.36310
_cell_length_b                            16.27030
_cell_length_c                            24.70500
_cell_angle_alpha                               90
_cell_angle_beta                           27.4673
_cell_angle_gamma                               90
_cell_volume                              2292.118
_cell_formula_units_Z                    4
_cell_measurement_temperature        ?
_cell_measurement_reflns_used        ?
_cell_measurement_theta_min          ?
_cell_measurement_theta_max          ?
_cell_special_details               
;
;

_exptl_crystal_description          ' ?'
_exptl_crystal_colour               ' ?'

_exptl_crystal_size_max              ?
_exptl_crystal_size_mid              ?
_exptl_crystal_size_min              ?
_exptl_crystal_size_rad              ?
_exptl_crystal_density_meas          ?
_exptl_crystal_density_diffrn            1.224
_exptl_crystal_density_method       'Not Measured'
_exptl_crystal_F_000                       872
_exptl_absorpt_coefficient_mu            0.085
_exptl_crystal_density_meas_temp     ?

# Permitted for _exptl_absorpt_correction_type :
# analytical     'analytical from crystal shape'
#                Example: de Meulenaer&Tompa: ABST
# cylinder       'cylindrical'
# gaussian       'Gaussian from crystal shape'
#                Example: PLATON/ABSG
# integration    'integration from crystal shape'
# multi-scan     'symmetry-related measurements'
#                Example: SADABS, MULABS
# none           'no absorption corr. applied'
# numerical      'numerical from crystal shape'
# psi-scan       'psi-scan corrections'
#                Example: PLATON/ABSP
# refdelf        'refined from delta-F'
#                Example: SHELXA, 
# sphere         'spherical'
#                Example: PLATON/ABSS
_exptl_absorpt_correction_type      ' ?'
# Example: '(North et al., 1968)'
_exptl_absorpt_process_details       ?
_exptl_absorpt_correction_T_min      ?
_exptl_absorpt_correction_T_max      ?

#===============================================================================

# 7. EXPERIMENTAL DATA

_exptl_special_details              
;
;
_diffrn_ambient_temperature          ?
_diffrn_radiation_wavelength           0.71073
_diffrn_radiation_probe              'x-ray'
_diffrn_radiation_type               'MoK\a'
_diffrn_radiation_source             ?
_diffrn_radiation_monochromator      ?

_diffrn_measurement_device_type      ?
_diffrn_measurement_method           ?
_diffrn_detector_area_resol_mean     ?

# number of measured reflections (redundant set)
_diffrn_reflns_number                ?
_diffrn_reflns_av_R_equivalents      ?
_diffrn_reflns_av_sigmaI/netI        ?
_diffrn_reflns_limit_h_min           ?
_diffrn_reflns_limit_h_max           ?
_diffrn_reflns_limit_k_min           ?
_diffrn_reflns_limit_k_max           ?
_diffrn_reflns_limit_l_min           ?
_diffrn_reflns_limit_l_max           ?
_diffrn_reflns_theta_min             ?
_diffrn_reflns_theta_max             ?
_diffrn_reflns_theta_full            ?
_diffrn_measured_fraction_theta_max  ?
_diffrn_measured_fraction_theta_full ?
_diffrn_reflns_reduction_process    
;
;

# number of unique reflections
_reflns_number_total                 ?
# number of observed reflections (> n sig(I))
_reflns_number_gt                    ?
_reflns_threshold_expression          ?

_computing_data_collection           ?
_computing_cell_refinement           ?
_computing_data_reduction            ?
_computing_structure_solution        ?
_computing_structure_refinement      ?
_computing_molecular_graphics        ?
_computing_publication_material      'PLATON (Spek, 2003)' 

#===============================================================================

# 8. REFINEMENT DATA

_refine_special_details              ?
_refine_ls_structure_factor_coef      ?
_refine_ls_matrix_type                ?
_refine_ls_weighting_scheme          ' ?'
_refine_ls_weighting_details        
 ?                                                                                                                      
_atom_sites_solution_primary        ' ?'
_atom_sites_solution_secondary      ' ?'
_atom_sites_solution_hydrogens      ' ?'


# Permitted for _refine_ls_hydrogen_treatment :
# refall  - refined all H parameters
# refxyz  - refined H coordinates only
# refU    - refined H U only
# noref   - no refinement of H parameters
# constr  - H parameters constrained
# mixed   - some constrained, some independent
# undef   - H-atom parameters not defined
_refine_ls_hydrogen_treatment       ' ?'

_refine_ls_extinction_method         ' ?'
_refine_ls_extinction_coef            ?                   
_refine_ls_extinction_expression    
 ?                                                                                                                      
_refine_ls_abs_structure_details    
 'Flack H.D. (1983), Acta Cryst. A39, 876-881' 
_refine_ls_abs_structure_Flack       ?

# Permitted for _chemical_absolute_configuration:
# Absolute configuration details
# rm   = Det. by chiral ref. mol. with known abs.conf
# ad   = Det. by anomalous dispersion
# rmad = Det. by 'rm' and 'ad' 
# syn  = Det. with reference to synthesis
# unk  = Unknown/Arbitrary
_chemical_absolute_configuration     ?

_refine_ls_number_reflns             ?
_refine_ls_number_parameters         ?
_refine_ls_number_restraints                 0
_refine_ls_number_constraints        ?
_refine_ls_R_factor_all              ?
_refine_ls_R_factor_gt               ?
_refine_ls_wR_factor_ref             ?
_refine_ls_wR_factor_gt              ?
_refine_ls_goodness_of_fit_ref       ?
_refine_ls_restrained_S_all          ?
_refine_ls_shift/su_max              ?
_refine_ls_shift/su_mean             ?
_refine_diff_density_max             ?
_refine_diff_density_min             ?
_refine_diff_density_rms             ?

#===============================================================================

# 9. ATOMIC COORDINATES AND DISPLACEMENT PARAMETERS

loop_
_atom_site_label                    
_atom_site_type_symbol              
_atom_site_thermal_displace_type    
_atom_site_fract_x                  
_atom_site_fract_y                  
_atom_site_fract_z                  
_atom_site_occupancy                
_atom_site_U_iso_or_equiv           
_atom_site_calc_flag                
_atom_site_refinement_flags         
O1 O Uiso -0.14286 0.38799 0.69712 1.000 0.0500 . .                             
O2 O Uiso 0.30115 0.28244 0.98658 1.000 0.0500 . .                              
O3 O Uiso 1.34609 -0.12685 0.17435 1.000 0.0500 . .                             
N1 N Uiso 0.17914 0.37576 0.61178 1.000 0.0500 . .                              
N2 N Uiso 0.49550 0.30056 0.81808 1.000 0.0500 . .                              
N3 N Uiso 1.24015 0.00890 0.23929 1.000 0.0500 . .                              
N4 N Uiso -0.09443 0.28132 0.73766 1.000 0.0500 . .                             
N5 N Uiso 0.22194 0.20611 0.94396 1.000 0.0500 . .                              
N6 N Uiso 0.96658 -0.08555 0.36517 1.000 0.0500 . .                             
C1 C Uiso 0.66234 0.23672 0.54527 1.000 0.0500 . .                              
C2 C Uiso 0.46234 0.25195 0.59435 1.000 0.0500 . .                              
C3 C Uiso 0.44654 0.31737 0.56551 1.000 0.0500 . .                              
C4 C Uiso 0.24958 0.32035 0.61999 1.000 0.0500 . .                              
C5 C Uiso -0.03445 0.35320 0.68401 1.000 0.0500 . .                             
C6 C Uiso 0.54949 0.23123 0.65122 1.000 0.0500 . .                              
C7 C Uiso 0.60702 0.27923 0.67018 1.000 0.0500 . .                              
C8 C Uiso 0.48344 0.26475 0.77253 1.000 0.0500 . .                              
C9 C Uiso 0.33485 0.26540 0.92480 1.000 0.0500 . .                              
C10 C Uiso 0.75471 0.15086 0.49171 1.000 0.0500 . .                             
C11 C Uiso 0.98479 0.13126 0.37655 1.000 0.0500 . .                             
C12 C Uiso 1.03400 0.04911 0.34460 1.000 0.0500 . .                             
C13 C Uiso 1.20404 -0.07504 0.24919 1.000 0.0500 . .                            
C14 C Uiso 0.34063 0.12565 0.69331 1.000 0.0500 . .                             
C15 C Uiso 0.28760 0.19162 0.67476 1.000 0.0500 . .                             
C16 C Uiso 0.09061 0.19449 0.72929 1.000 0.0500 . .                             
C17 C Uiso 0.07453 0.25991 0.70053 1.000 0.0500 . .                             
C18 C Uiso 0.37476 0.17091 0.73163 1.000 0.0500 . .                             
C19 C Uiso 0.25108 0.15635 0.83397 1.000 0.0500 . .                             
C20 C Uiso 0.30838 0.20432 0.85308 1.000 0.0500 . .                             
C21 C Uiso 0.57997 0.09053 0.57211 1.000 0.0500 . .                             
C22 C Uiso 0.62885 0.00838 0.54033 1.000 0.0500 . .                             
C23 C Uiso 0.85895 -0.01133 0.42515 1.000 0.0500 . .                            
O4 O Uiso 1.14150 0.88799 0.80360 1.000 0.0500 . .                              
O5 O Uiso 0.69749 0.78244 0.51413 1.000 0.0500 . .                              
O6 O Uiso -0.34745 0.37315 1.32636 1.000 0.0500 . .                             
N7 N Uiso 0.81950 0.87577 0.88893 1.000 0.0500 . .                              
N8 N Uiso 0.50314 0.80056 0.68263 1.000 0.0500 . .                              
N9 N Uiso -0.24151 0.50890 1.26142 1.000 0.0500 . .                             
N10 N Uiso 1.09307 0.78132 0.76305 1.000 0.0500 . .                             
N11 N Uiso 0.77670 0.70611 0.55675 1.000 0.0500 . .                             
N12 N Uiso 0.03205 0.41445 1.13554 1.000 0.0500 . .                             
C24 C Uiso 0.33630 0.73672 0.95544 1.000 0.0500 . .                             
C25 C Uiso 0.53630 0.75195 0.90636 1.000 0.0500 . .                             
C26 C Uiso 0.55210 0.81737 0.93520 1.000 0.0500 . .                             
C27 C Uiso 0.74906 0.82034 0.88073 1.000 0.0500 . .                             
C28 C Uiso 1.03309 0.85320 0.81671 1.000 0.0500 . .                             
C29 C Uiso 0.44914 0.73123 0.84949 1.000 0.0500 . .                             
C30 C Uiso 0.39162 0.77923 0.83053 1.000 0.0500 . .                             
C31 C Uiso 0.51520 0.76475 0.72818 1.000 0.0500 . .                             
C32 C Uiso 0.66379 0.76540 0.57591 1.000 0.0500 . .                             
C33 C Uiso 0.24393 0.65086 1.00901 1.000 0.0500 . .                             
C34 C Uiso 0.01385 0.63126 1.12416 1.000 0.0500 . .                             
C35 C Uiso -0.03537 0.54911 1.15611 1.000 0.0500 . .                            
C36 C Uiso -0.20540 0.42496 1.25152 1.000 0.0500 . .                            
C37 C Uiso 0.65801 0.62565 0.80740 1.000 0.0500 . .                             
C38 C Uiso 0.71104 0.69162 0.82595 1.000 0.0500 . .                             
C39 C Uiso 0.90803 0.69449 0.77142 1.000 0.0500 . .                             
C40 C Uiso 0.92411 0.75991 0.80018 1.000 0.0500 . .                             
C41 C Uiso 0.62388 0.67091 0.76908 1.000 0.0500 . .                             
C42 C Uiso 0.74756 0.65635 0.66674 1.000 0.0500 . .                             
C43 C Uiso 0.69025 0.70432 0.64763 1.000 0.0500 . .                             
C44 C Uiso 0.41867 0.59052 0.92860 1.000 0.0500 . .                             
C45 C Uiso 0.36979 0.50838 0.96038 1.000 0.0500 . .                             
C46 C Uiso 0.13969 0.48867 1.07556 1.000 0.0500 . .                             
O7 O Uiso 1.14150 0.61285 0.30360 1.000 0.0500 . .                              
O8 O Uiso 0.69749 0.71840 0.01413 1.000 0.0500 . .                              
O9 O Uiso -0.34745 1.12769 0.82636 1.000 0.0500 . .                             
N13 N Uiso 0.81950 0.62507 0.38893 1.000 0.0500 . .                             
N14 N Uiso 0.50314 0.70028 0.18263 1.000 0.0500 . .                             
N15 N Uiso -0.24151 0.99195 0.76142 1.000 0.0500 . .                            
N16 N Uiso 1.09307 0.71952 0.26305 1.000 0.0500 . .                             
N17 N Uiso 0.77670 0.79473 0.05675 1.000 0.0500 . .                             
N18 N Uiso 0.03205 1.08639 0.63554 1.000 0.0500 . .                             
C47 C Uiso 0.33630 0.76412 0.45544 1.000 0.0500 . .                             
C48 C Uiso 0.53630 0.74889 0.40636 1.000 0.0500 . .                             
C49 C Uiso 0.55210 0.68347 0.43520 1.000 0.0500 . .                             
C50 C Uiso 0.74906 0.68050 0.38072 1.000 0.0500 . .                             
C51 C Uiso 1.03309 0.64764 0.31671 1.000 0.0500 . .                             
C52 C Uiso 0.44914 0.76961 0.34949 1.000 0.0500 . .                             
C53 C Uiso 0.39162 0.72161 0.33053 1.000 0.0500 . .                             
C54 C Uiso 0.51520 0.73609 0.22818 1.000 0.0500 . .                             
C55 C Uiso 0.66379 0.73544 0.07591 1.000 0.0500 . .                             
C56 C Uiso 0.24393 0.84999 0.50901 1.000 0.0500 . .                             
C57 C Uiso 0.01385 0.86958 0.62416 1.000 0.0500 . .                             
C58 C Uiso -0.03537 0.95173 0.65611 1.000 0.0500 . .                            
C59 C Uiso -0.20540 1.07588 0.75152 1.000 0.0500 . .                            
C60 C Uiso 0.65801 0.87519 0.30740 1.000 0.0500 . .                             
C61 C Uiso 0.71104 0.80922 0.32595 1.000 0.0500 . .                             
C62 C Uiso 0.90803 0.80635 0.27142 1.000 0.0500 . .                             
C63 C Uiso 0.92411 0.74093 0.30018 1.000 0.0500 . .                             
C64 C Uiso 0.62388 0.82993 0.26908 1.000 0.0500 . .                             
C65 C Uiso 0.74756 0.84449 0.16674 1.000 0.0500 . .                             
C66 C Uiso 0.69025 0.79652 0.14763 1.000 0.0500 . .                             
C67 C Uiso 0.41867 0.91031 0.42860 1.000 0.0500 . .                             
C68 C Uiso 0.36979 0.99246 0.46038 1.000 0.0500 . .                             
C69 C Uiso 0.13969 1.01217 0.57556 1.000 0.0500 . .                             
O10 O Uiso -0.14286 0.11285 0.19712 1.000 0.0500 . .                            
O11 O Uiso 0.30115 0.21840 0.48658 1.000 0.0500 . .                             
O12 O Uiso 1.34609 0.62769 -0.32565 1.000 0.0500 . .                            
N19 N Uiso 0.17914 0.12507 0.11178 1.000 0.0500 . .                             
N20 N Uiso 0.49550 0.20028 0.31808 1.000 0.0500 . .                             
N21 N Uiso 1.24015 0.49194 -0.26071 1.000 0.0500 . .                            
N22 N Uiso -0.09443 0.21952 0.23766 1.000 0.0500 . .                            
N23 N Uiso 0.22194 0.29473 0.44396 1.000 0.0500 . .                             
N24 N Uiso 0.96658 0.58639 -0.13483 1.000 0.0500 . .                            
C70 C Uiso 0.66234 0.26412 0.04527 1.000 0.0500 . .                             
C71 C Uiso 0.46234 0.24889 0.09435 1.000 0.0500 . .                             
C72 C Uiso 0.44654 0.18347 0.06551 1.000 0.0500 . .                             
C73 C Uiso 0.24958 0.18050 0.11999 1.000 0.0500 . .                             
C74 C Uiso -0.03445 0.14764 0.18401 1.000 0.0500 . .                            
C75 C Uiso 0.54949 0.26961 0.15122 1.000 0.0500 . .                             
C76 C Uiso 0.60702 0.22161 0.17018 1.000 0.0500 . .                             
C77 C Uiso 0.48344 0.23609 0.27253 1.000 0.0500 . .                             
C78 C Uiso 0.33485 0.23544 0.42480 1.000 0.0500 . .                             
C79 C Uiso 0.75471 0.34998 -0.00829 1.000 0.0500 . .                            
C80 C Uiso 0.98479 0.36957 -0.12345 1.000 0.0500 . .                            
C81 C Uiso 1.03400 0.45173 -0.15540 1.000 0.0500 . .                            
C82 C Uiso 1.20404 0.57588 -0.25081 1.000 0.0500 . .                            
C83 C Uiso 0.34063 0.37519 0.19331 1.000 0.0500 . .                             
C84 C Uiso 0.28760 0.30922 0.17476 1.000 0.0500 . .                             
C85 C Uiso 0.09061 0.30635 0.22929 1.000 0.0500 . .                             
C86 C Uiso 0.07453 0.24093 0.20053 1.000 0.0500 . .                             
C87 C Uiso 0.37476 0.32993 0.23163 1.000 0.0500 . .                             
C88 C Uiso 0.25108 0.34449 0.33397 1.000 0.0500 . .                             
C89 C Uiso 0.30838 0.29652 0.35309 1.000 0.0500 . .                             
C90 C Uiso 0.57997 0.41032 0.07211 1.000 0.0500 . .                             
C91 C Uiso 0.62885 0.49246 0.04033 1.000 0.0500 . .                             
C92 C Uiso 0.85895 0.51217 -0.07485 1.000 0.0500 . .                            
H1 H Uiso 0.79838 0.28368 0.48268 1.000 0.0500 . .                              
H2 H Uiso 0.58180 0.36406 0.50329 1.000 0.0500 . .                              
H3 H Uiso 0.74226 0.32591 0.60794 1.000 0.0500 . .                              
H4 H Uiso 1.11996 0.17797 0.31435 1.000 0.0500 . .                              
H5 H Uiso 0.26458 0.42657 0.56163 1.000 0.0500 . .                              
H6 H Uiso 0.60298 0.34612 0.78227 1.000 0.0500 . .                              
H7 H Uiso 1.39945 0.03416 0.16318 1.000 0.0500 . .                              
H8 H Uiso 0.20458 0.07868 0.75591 1.000 0.0500 . .                              
H9 H Uiso -0.04459 0.14779 0.79151 1.000 0.0500 . .                             
H10 H Uiso 0.11588 0.10965 0.89617 1.000 0.0500 . .                             
H11 H Uiso 0.49358 -0.03829 0.60258 1.000 0.0500 . .                            
H12 H Uiso -0.24383 0.25105 0.79557 1.000 0.0500 . .                            
H13 H Uiso 0.09459 0.17060 1.01621 1.000 0.0500 . .                             
H14 H Uiso 0.89105 -0.14137 0.39712 1.000 0.0500 . .                            
H15 H Uiso 0.20026 0.78369 1.01803 1.000 0.0500 . .                             
H16 H Uiso 0.41684 0.86405 0.99743 1.000 0.0500 . .                             
H17 H Uiso 0.25638 0.82591 0.89277 1.000 0.0500 . .                             
H18 H Uiso -0.12133 0.67797 1.18636 1.000 0.0500 . .                            
H19 H Uiso 0.73406 0.92657 0.93909 1.000 0.0500 . .                             
H20 H Uiso 0.39566 0.84612 0.71844 1.000 0.0500 . .                             
H21 H Uiso -0.40081 0.53416 1.33753 1.000 0.0500 . .                            
H22 H Uiso 0.79405 0.57868 0.74480 1.000 0.0500 . .                             
H23 H Uiso 1.04323 0.64779 0.70920 1.000 0.0500 . .                             
H24 H Uiso 0.88276 0.60965 0.60454 1.000 0.0500 . .                             
H25 H Uiso 0.50506 0.46171 0.89813 1.000 0.0500 . .                             
H26 H Uiso 1.24247 0.75105 0.70514 1.000 0.0500 . .                             
H27 H Uiso 0.90405 0.67060 0.48450 1.000 0.0500 . .                             
H28 H Uiso 0.10759 0.35863 1.10359 1.000 0.0500 . .                             
H29 H Uiso 0.20026 0.71716 0.51803 1.000 0.0500 . .                             
H30 H Uiso 0.41684 0.63679 0.49742 1.000 0.0500 . .                             
H31 H Uiso 0.25638 0.67493 0.39277 1.000 0.0500 . .                             
H32 H Uiso -0.12133 0.82287 0.68636 1.000 0.0500 . .                            
H33 H Uiso 0.73406 0.57427 0.43909 1.000 0.0500 . .                             
H34 H Uiso 0.39566 0.65472 0.21844 1.000 0.0500 . .                             
H35 H Uiso -0.40081 0.96669 0.83753 1.000 0.0500 . .                            
H36 H Uiso 0.79405 0.92216 0.24480 1.000 0.0500 . .                             
H37 H Uiso 1.04323 0.85305 0.20920 1.000 0.0500 . .                             
H38 H Uiso 0.88276 0.89119 0.10454 1.000 0.0500 . .                             
H39 H Uiso 0.50506 1.03913 0.39813 1.000 0.0500 . .                             
H40 H Uiso 1.24247 0.74979 0.20514 1.000 0.0500 . .                             
H41 H Uiso 0.90405 0.83024 -0.01550 1.000 0.0500 . .                            
H42 H Uiso 0.10759 1.14221 0.60359 1.000 0.0500 . .                             
H43 H Uiso 0.79838 0.21716 -0.01732 1.000 0.0500 . .                            
H44 H Uiso 0.58180 0.13679 0.00329 1.000 0.0500 . .                             
H45 H Uiso 0.74226 0.17493 0.10794 1.000 0.0500 . .                             
H46 H Uiso 1.11996 0.32287 -0.18565 1.000 0.0500 . .                            
H47 H Uiso 0.26458 0.07427 0.06163 1.000 0.0500 . .                             
H48 H Uiso 0.60298 0.15472 0.28227 1.000 0.0500 . .                             
H49 H Uiso 1.39945 0.46669 -0.33682 1.000 0.0500 . .                            
H50 H Uiso 0.20458 0.42217 0.25591 1.000 0.0500 . .                             
H51 H Uiso -0.04459 0.35305 0.29151 1.000 0.0500 . .                            
H52 H Uiso 0.11588 0.39119 0.39617 1.000 0.0500 . .                             
H53 H Uiso 0.49358 0.53913 0.10258 1.000 0.0500 . .                             
H54 H Uiso -0.24383 0.24979 0.29557 1.000 0.0500 . .                            
H55 H Uiso 0.09459 0.33024 0.51621 1.000 0.0500 . .                             
H56 H Uiso 0.89105 0.64221 -0.10288 1.000 0.0500 . .                            

#===============================================================================

# 10. MOLECULAR GEOMETRY

_geom_special_details               
;
 Bond distances, angles etc. have been calculated using the
 rounded fractional coordinates. All su's are estimated
 from the variances of the (full) variance-covariance matrix.
 The cell esds are taken into account in the estimation of
 distances, angles and torsion angles
;

loop_
_geom_bond_atom_site_label_1        
_geom_bond_atom_site_label_2        
_geom_bond_distance                 
_geom_bond_site_symmetry_1          
_geom_bond_site_symmetry_2          
_geom_bond_publ_flag                
 O1      C5           1.2047                     .       .                   yes
 O2      C9           1.2048                     .       .                   yes
 O3      C13          1.2047                     .       .                   yes
 O4      C28          1.2047                     .       .                   yes
 O5      C32          1.2048                     .       .                   yes
 O6      C36          1.2047                     .       .                   yes
 O7      C51          1.2047                     .       .                   yes
 O8      C55          1.2048                     .       .                   yes
 O9      C59          1.2047                     .       .                   yes
 O10     C74          1.2047                     .       .                   yes
 O11     C78          1.2048                     .       .                   yes
 O12     C82          1.2047                     .       .                   yes
 N1      C4           1.3877                     .       .                   yes
 N1      C5           1.3894                     .       .                   yes
 N2      C9           1.3895                     .       .                   yes
 N2      C8           1.3878                     .       .                   yes
 N3      C12          1.3877                     .       .                   yes
 N3      C13          1.3894                     .       .                   yes
 N4      C17          1.3877                     .       .                   yes
 N4      C5           1.3894                     .       .                   yes
 N5      C9           1.3895                     .       .                   yes
 N5      C20          1.3877                     .       .                   yes
 N6      C13          1.3895                     .       .                   yes
 N6      C23          1.3877                     .       .                   yes
 N1      H5           1.0100                     .       .                   no 
 N2      H6           1.0100                     .       .                   no 
 N3      H7           1.0100                     .       .                   no 
 N4      H12          1.0100                     .       .                   no 
 N5      H13          1.0100                     .       .                   no 
 N6      H14          1.0100                     .       .                   no 
 N7      C28          1.3894                     .       .                   yes
 N7      C27          1.3877                     .       .                   yes
 N8      C31          1.3878                     .       .                   yes
 N8      C32          1.3895                     .       .                   yes
 N9      C36          1.3894                     .       .                   yes
 N9      C35          1.3877                     .       .                   yes
 N10     C28          1.3894                     .       .                   yes
 N10     C40          1.3877                     .       .                   yes
 N11     C32          1.3895                     .       .                   yes
 N11     C43          1.3877                     .       .                   yes
 N12     C36          1.3895                     .       .                   yes
 N12     C46          1.3877                     .       .                   yes
 N7      H19          1.0100                     .       .                   no 
 N8      H20          1.0100                     .       .                   no 
 N9      H21          1.0100                     .       .                   no 
 N10     H26          1.0100                     .       .                   no 
 N11     H27          1.0100                     .       .                   no 
 N12     H28          1.0100                     .       .                   no 
 N13     C50          1.3877                     .       .                   yes
 N13     C51          1.3894                     .       .                   yes
 N14     C55          1.3895                     .       .                   yes
 N14     C54          1.3878                     .       .                   yes
 N15     C59          1.3894                     .       .                   yes
 N15     C58          1.3877                     .       .                   yes
 N16     C51          1.3894                     .       .                   yes
 N16     C63          1.3877                     .       .                   yes
 N17     C55          1.3895                     .       .                   yes
 N17     C66          1.3877                     .       .                   yes
 N18     C59          1.3895                     .       .                   yes
 N18     C69          1.3877                     .       .                   yes
 N13     H33          1.0100                     .       .                   no 
 N14     H34          1.0100                     .       .                   no 
 N15     H35          1.0100                     .       .                   no 
 N16     H40          1.0100                     .       .                   no 
 N17     H41          1.0100                     .       .                   no 
 N18     H42          1.0100                     .       .                   no 
 N19     C74          1.3894                     .       .                   yes
 N19     C73          1.3877                     .       .                   yes
 N20     C78          1.3895                     .       .                   yes
 N20     C77          1.3878                     .       .                   yes
 N21     C82          1.3894                     .       .                   yes
 N21     C81          1.3877                     .       .                   yes
 N22     C86          1.3877                     .       .                   yes
 N22     C74          1.3894                     .       .                   yes
 N23     C78          1.3895                     .       .                   yes
 N23     C89          1.3877                     .       .                   yes
 N24     C92          1.3877                     .       .                   yes
 N24     C82          1.3895                     .       .                   yes
 N19     H47          1.0100                     .       .                   no 
 N20     H48          1.0100                     .       .                   no 
 N21     H49          1.0100                     .       .                   no 
 N22     H54          1.0100                     .       .                   no 
 N23     H55          1.0100                     .       .                   no 
 N24     H56          1.0100                     .       .                   no 
 C1      C10          1.5249                     .       .                   no 
 C1      C6           1.5249                     .       .                   no 
 C1      C2           1.5249                     .       .                   no 
 C2      C3           1.3878                     .       .                   no 
 C2      C15          1.4004                     .       .                   no 
 C3      C4           1.3884                     .       .                   no 
 C4      C17          1.4030                     .       .                   no 
 C6      C18          1.4004                     .       .                   no 
 C6      C7           1.3879                     .       .                   no 
 C7      C8           1.3884                     .       .                   no 
 C8      C20          1.4029                     .       .                   no 
 C10     C11          1.3878                     .       .                   no 
 C10     C21          1.4004                     .       .                   no 
 C11     C12          1.3885                     .       .                   no 
 C12     C23          1.4029                     .       .                   no 
 C14     C15          1.5249                     .       .                   no 
 C14     C18          1.5249                     .       .                   no 
 C14     C21          1.5249                     .       .                   no 
 C15     C16          1.3878                     .       .                   no 
 C16     C17          1.3885                     .       .                   no 
 C18     C19          1.3878                     .       .                   no 
 C19     C20          1.3884                     .       .                   no 
 C21     C22          1.3878                     .       .                   no 
 C22     C23          1.3885                     .       .                   no 
 C1      H1           1.0900                     .       .                   no 
 C3      H2           1.0800                     .       .                   no 
 C7      H3           1.0800                     .       .                   no 
 C11     H4           1.0800                     .       .                   no 
 C14     H8           1.0900                     .       .                   no 
 C16     H9           1.0800                     .       .                   no 
 C19     H10          1.0800                     .       .                   no 
 C22     H11          1.0800                     .       .                   no 
 C24     C25          1.5249                     .       .                   no 
 C24     C33          1.5249                     .       .                   no 
 C24     C29          1.5249                     .       .                   no 
 C25     C38          1.4004                     .       .                   no 
 C25     C26          1.3878                     .       .                   no 
 C26     C27          1.3884                     .       .                   no 
 C27     C40          1.4030                     .       .                   no 
 C29     C30          1.3879                     .       .                   no 
 C29     C41          1.4004                     .       .                   no 
 C30     C31          1.3884                     .       .                   no 
 C31     C43          1.4029                     .       .                   no 
 C33     C34          1.3878                     .       .                   no 
 C33     C44          1.4004                     .       .                   no 
 C34     C35          1.3885                     .       .                   no 
 C35     C46          1.4029                     .       .                   no 
 C37     C38          1.5249                     .       .                   no 
 C37     C44          1.5249                     .       .                   no 
 C37     C41          1.5249                     .       .                   no 
 C38     C39          1.3878                     .       .                   no 
 C39     C40          1.3885                     .       .                   no 
 C41     C42          1.3878                     .       .                   no 
 C42     C43          1.3884                     .       .                   no 
 C44     C45          1.3878                     .       .                   no 
 C45     C46          1.3885                     .       .                   no 
 C24     H15          1.0900                     .       .                   no 
 C26     H16          1.0800                     .       .                   no 
 C30     H17          1.0800                     .       .                   no 
 C34     H18          1.0800                     .       .                   no 
 C37     H22          1.0900                     .       .                   no 
 C39     H23          1.0800                     .       .                   no 
 C42     H24          1.0800                     .       .                   no 
 C45     H25          1.0800                     .       .                   no 
 C47     C48          1.5249                     .       .                   no 
 C47     C52          1.5249                     .       .                   no 
 C47     C56          1.5249                     .       .                   no 
 C48     C49          1.3878                     .       .                   no 
 C48     C61          1.4004                     .       .                   no 
 C49     C50          1.3884                     .       .                   no 
 C50     C63          1.4029                     .       .                   no 
 C52     C53          1.3879                     .       .                   no 
 C52     C64          1.4004                     .       .                   no 
 C53     C54          1.3884                     .       .                   no 
 C54     C66          1.4030                     .       .                   no 
 C56     C67          1.4004                     .       .                   no 
 C56     C57          1.3878                     .       .                   no 
 C57     C58          1.3885                     .       .                   no 
 C58     C69          1.4029                     .       .                   no 
 C60     C67          1.5249                     .       .                   no 
 C60     C64          1.5249                     .       .                   no 
 C60     C61          1.5249                     .       .                   no 
 C61     C62          1.3878                     .       .                   no 
 C62     C63          1.3885                     .       .                   no 
 C64     C65          1.3878                     .       .                   no 
 C65     C66          1.3884                     .       .                   no 
 C67     C68          1.3878                     .       .                   no 
 C68     C69          1.3885                     .       .                   no 
 C47     H29          1.0900                     .       .                   no 
 C49     H30          1.0800                     .       .                   no 
 C53     H31          1.0800                     .       .                   no 
 C57     H32          1.0800                     .       .                   no 
 C60     H36          1.0900                     .       .                   no 
 C62     H37          1.0800                     .       .                   no 
 C65     H38          1.0800                     .       .                   no 
 C68     H39          1.0800                     .       .                   no 
 C70     C75          1.5249                     .       .                   no 
 C70     C71          1.5249                     .       .                   no 
 C70     C79          1.5249                     .       .                   no 
 C71     C84          1.4004                     .       .                   no 
 C71     C72          1.3878                     .       .                   no 
 C72     C73          1.3884                     .       .                   no 
 C73     C86          1.4029                     .       .                   no 
 C75     C87          1.4004                     .       .                   no 
 C75     C76          1.3879                     .       .                   no 
 C76     C77          1.3884                     .       .                   no 
 C77     C89          1.4029                     .       .                   no 
 C79     C80          1.3878                     .       .                   no 
 C79     C90          1.4004                     .       .                   no 
 C80     C81          1.3885                     .       .                   no 
 C81     C92          1.4029                     .       .                   no 
 C83     C87          1.5249                     .       .                   no 
 C83     C84          1.5249                     .       .                   no 
 C83     C90          1.5249                     .       .                   no 
 C84     C85          1.3878                     .       .                   no 
 C85     C86          1.3885                     .       .                   no 
 C87     C88          1.3878                     .       .                   no 
 C88     C89          1.3884                     .       .                   no 
 C90     C91          1.3878                     .       .                   no 
 C91     C92          1.3885                     .       .                   no 
 C70     H43          1.0900                     .       .                   no 
 C72     H44          1.0800                     .       .                   no 
 C76     H45          1.0800                     .       .                   no 
 C80     H46          1.0800                     .       .                   no 
 C83     H50          1.0900                     .       .                   no 
 C85     H51          1.0800                     .       .                   no 
 C88     H52          1.0800                     .       .                   no 
 C91     H53          1.0800                     .       .                   no 

loop_
_geom_angle_atom_site_label_1       
_geom_angle_atom_site_label_2       
_geom_angle_atom_site_label_3       
_geom_angle                         
_geom_angle_site_symmetry_1         
_geom_angle_site_symmetry_2         
_geom_angle_site_symmetry_3         
_geom_angle_publ_flag               
 C4      N1      C5           111.39             .       .       .           yes
 C8      N2      C9           111.39             .       .       .           yes
 C12     N3      C13          111.38             .       .       .           yes
 C5      N4      C17          111.38             .       .       .           yes
 C9      N5      C20          111.39             .       .       .           yes
 C13     N6      C23          111.38             .       .       .           yes
 C4      N1      H5           127.00             .       .       .           no 
 C5      N1      H5           121.00             .       .       .           no 
 C9      N2      H6           121.00             .       .       .           no 
 C8      N2      H6           127.00             .       .       .           no 
 C12     N3      H7           127.00             .       .       .           no 
 C13     N3      H7           121.00             .       .       .           no 
 C5      N4      H12          121.00             .       .       .           no 
 C17     N4      H12          127.00             .       .       .           no 
 C20     N5      H13          127.00             .       .       .           no 
 C9      N5      H13          121.00             .       .       .           no 
 C13     N6      H14          121.00             .       .       .           no 
 C23     N6      H14          127.00             .       .       .           no 
 C27     N7      C28          111.39             .       .       .           yes
 C31     N8      C32          111.39             .       .       .           yes
 C35     N9      C36          111.38             .       .       .           yes
 C28     N10     C40          111.38             .       .       .           yes
 C32     N11     C43          111.39             .       .       .           yes
 C36     N12     C46          111.38             .       .       .           yes
 C28     N7      H19          121.00             .       .       .           no 
 C27     N7      H19          127.00             .       .       .           no 
 C32     N8      H20          121.00             .       .       .           no 
 C31     N8      H20          127.00             .       .       .           no 
 C35     N9      H21          127.00             .       .       .           no 
 C36     N9      H21          121.00             .       .       .           no 
 C40     N10     H26          127.00             .       .       .           no 
 C28     N10     H26          121.00             .       .       .           no 
 C32     N11     H27          121.00             .       .       .           no 
 C43     N11     H27          127.00             .       .       .           no 
 C46     N12     H28          127.00             .       .       .           no 
 C36     N12     H28          121.00             .       .       .           no 
 C50     N13     C51          111.39             .       .       .           yes
 C54     N14     C55          111.39             .       .       .           yes
 C58     N15     C59          111.38             .       .       .           yes
 C51     N16     C63          111.38             .       .       .           yes
 C55     N17     C66          111.39             .       .       .           yes
 C59     N18     C69          111.38             .       .       .           yes
 C51     N13     H33          121.00             .       .       .           no 
 C50     N13     H33          127.00             .       .       .           no 
 C54     N14     H34          127.00             .       .       .           no 
 C55     N14     H34          121.00             .       .       .           no 
 C58     N15     H35          127.00             .       .       .           no 
 C59     N15     H35          121.00             .       .       .           no 
 C63     N16     H40          127.00             .       .       .           no 
 C51     N16     H40          121.00             .       .       .           no 
 C66     N17     H41          127.00             .       .       .           no 
 C55     N17     H41          121.00             .       .       .           no 
 C69     N18     H42          127.00             .       .       .           no 
 C59     N18     H42          121.00             .       .       .           no 
 C73     N19     C74          111.39             .       .       .           yes
 C77     N20     C78          111.39             .       .       .           yes
 C81     N21     C82          111.38             .       .       .           yes
 C74     N22     C86          111.38             .       .       .           yes
 C78     N23     C89          111.39             .       .       .           yes
 C82     N24     C92          111.38             .       .       .           yes
 C73     N19     H47          127.00             .       .       .           no 
 C74     N19     H47          121.00             .       .       .           no 
 C77     N20     H48          127.00             .       .       .           no 
 C78     N20     H48          121.00             .       .       .           no 
 C82     N21     H49          121.00             .       .       .           no 
 C81     N21     H49          127.00             .       .       .           no 
 C86     N22     H54          127.00             .       .       .           no 
 C74     N22     H54          121.00             .       .       .           no 
 C89     N23     H55          127.00             .       .       .           no 
 C78     N23     H55          121.00             .       .       .           no 
 C92     N24     H56          127.00             .       .       .           no 
 C82     N24     H56          121.00             .       .       .           no 
 C2      C1      C10          106.04             .       .       .           no 
 C2      C1      C6           106.03             .       .       .           no 
 C6      C1      C10          106.03             .       .       .           no 
 C1      C2      C15          112.72             .       .       .           no 
 C3      C2      C15          121.55             .       .       .           no 
 C1      C2      C3           125.73             .       .       .           no 
 C2      C3      C4           116.99             .       .       .           no 
 C3      C4      C17          121.47             .       .       .           no 
 N1      C4      C3           132.01             .       .       .           yes
 N1      C4      C17          106.52             .       .       .           yes
 O1      C5      N1           127.91             .       .       .           yes
 N1      C5      N4           104.18             .       .       .           yes
 O1      C5      N4           127.91             .       .       .           yes
 C7      C6      C18          121.54             .       .       .           no 
 C1      C6      C18          112.72             .       .       .           no 
 C1      C6      C7           125.73             .       .       .           no 
 C6      C7      C8           116.98             .       .       .           no 
 N2      C8      C7           132.00             .       .       .           yes
 C7      C8      C20          121.47             .       .       .           no 
 N2      C8      C20          106.52             .       .       .           yes
 O2      C9      N2           127.91             .       .       .           yes
 N2      C9      N5           104.17             .       .       .           yes
 O2      C9      N5           127.91             .       .       .           yes
 C1      C10     C21          112.72             .       .       .           no 
 C1      C10     C11          125.73             .       .       .           no 
 C11     C10     C21          121.54             .       .       .           no 
 C10     C11     C12          116.98             .       .       .           no 
 N3      C12     C23          106.53             .       .       .           yes
 C11     C12     C23          121.47             .       .       .           no 
 N3      C12     C11          132.00             .       .       .           yes
 N3      C13     N6           104.18             .       .       .           yes
 O3      C13     N3           127.91             .       .       .           yes
 O3      C13     N6           127.91             .       .       .           yes
 C15     C14     C18          106.03             .       .       .           no 
 C15     C14     C21          106.04             .       .       .           no 
 C18     C14     C21          106.04             .       .       .           no 
 C2      C15     C16          121.54             .       .       .           no 
 C2      C15     C14          112.72             .       .       .           no 
 C14     C15     C16          125.74             .       .       .           no 
 C15     C16     C17          116.98             .       .       .           no 
 N4      C17     C16          132.00             .       .       .           yes
 N4      C17     C4           106.53             .       .       .           yes
 C4      C17     C16          121.47             .       .       .           no 
 C6      C18     C14          112.72             .       .       .           no 
 C14     C18     C19          125.73             .       .       .           no 
 C6      C18     C19          121.55             .       .       .           no 
 C18     C19     C20          116.99             .       .       .           no 
 C8      C20     C19          121.46             .       .       .           no 
 N5      C20     C8           106.53             .       .       .           yes
 N5      C20     C19          132.01             .       .       .           yes
 C10     C21     C22          121.55             .       .       .           no 
 C10     C21     C14          112.72             .       .       .           no 
 C14     C21     C22          125.73             .       .       .           no 
 C21     C22     C23          116.98             .       .       .           no 
 N6      C23     C22          132.01             .       .       .           yes
 N6      C23     C12          106.53             .       .       .           yes
 C12     C23     C22          121.47             .       .       .           no 
 C2      C1      H1           113.00             .       .       .           no 
 C10     C1      H1           113.00             .       .       .           no 
 C6      C1      H1           113.00             .       .       .           no 
 C2      C3      H2           122.00             .       .       .           no 
 C4      C3      H2           121.00             .       .       .           no 
 C6      C7      H3           122.00             .       .       .           no 
 C8      C7      H3           121.00             .       .       .           no 
 C12     C11     H4           121.00             .       .       .           no 
 C10     C11     H4           122.00             .       .       .           no 
 C21     C14     H8           113.00             .       .       .           no 
 C15     C14     H8           113.00             .       .       .           no 
 C18     C14     H8           113.00             .       .       .           no 
 C17     C16     H9           121.00             .       .       .           no 
 C15     C16     H9           122.00             .       .       .           no 
 C18     C19     H10          122.00             .       .       .           no 
 C20     C19     H10          121.00             .       .       .           no 
 C23     C22     H11          121.00             .       .       .           no 
 C21     C22     H11          122.00             .       .       .           no 
 C25     C24     C33          106.04             .       .       .           no 
 C25     C24     C29          106.03             .       .       .           no 
 C29     C24     C33          106.03             .       .       .           no 
 C24     C25     C38          112.72             .       .       .           no 
 C26     C25     C38          121.55             .       .       .           no 
 C24     C25     C26          125.73             .       .       .           no 
 C25     C26     C27          116.99             .       .       .           no 
 N7      C27     C40          106.52             .       .       .           yes
 C26     C27     C40          121.47             .       .       .           no 
 N7      C27     C26          132.01             .       .       .           yes
 O4      C28     N7           127.91             .       .       .           yes
 O4      C28     N10          127.91             .       .       .           yes
 N7      C28     N10          104.18             .       .       .           yes
 C24     C29     C30          125.73             .       .       .           no 
 C30     C29     C41          121.54             .       .       .           no 
 C24     C29     C41          112.72             .       .       .           no 
 C29     C30     C31          116.98             .       .       .           no 
 C30     C31     C43          121.47             .       .       .           no 
 N8      C31     C43          106.52             .       .       .           yes
 N8      C31     C30          132.00             .       .       .           yes
 N8      C32     N11          104.17             .       .       .           yes
 O5      C32     N11          127.91             .       .       .           yes
 O5      C32     N8           127.91             .       .       .           yes
 C24     C33     C44          112.72             .       .       .           no 
 C34     C33     C44          121.54             .       .       .           no 
 C24     C33     C34          125.73             .       .       .           no 
 C33     C34     C35          116.98             .       .       .           no 
 C34     C35     C46          121.47             .       .       .           no 
 N9      C35     C34          132.00             .       .       .           yes
 N9      C35     C46          106.53             .       .       .           yes
 O6      C36     N9           127.91             .       .       .           yes
 O6      C36     N12          127.91             .       .       .           yes
 N9      C36     N12          104.18             .       .       .           yes
 C38     C37     C41          106.03             .       .       .           no 
 C41     C37     C44          106.04             .       .       .           no 
 C38     C37     C44          106.04             .       .       .           no 
 C25     C38     C37          112.72             .       .       .           no 
 C25     C38     C39          121.54             .       .       .           no 
 C37     C38     C39          125.74             .       .       .           no 
 C38     C39     C40          116.98             .       .       .           no 
 N10     C40     C27          106.53             .       .       .           yes
 N10     C40     C39          132.00             .       .       .           yes
 C27     C40     C39          121.47             .       .       .           no 
 C29     C41     C42          121.55             .       .       .           no 
 C37     C41     C42          125.73             .       .       .           no 
 C29     C41     C37          112.72             .       .       .           no 
 C41     C42     C43          116.99             .       .       .           no 
 N11     C43     C42          132.01             .       .       .           yes
 N11     C43     C31          106.53             .       .       .           yes
 C31     C43     C42          121.47             .       .       .           no 
 C33     C44     C45          121.55             .       .       .           no 
 C37     C44     C45          125.73             .       .       .           no 
 C33     C44     C37          112.72             .       .       .           no 
 C44     C45     C46          116.98             .       .       .           no 
 N12     C46     C35          106.53             .       .       .           yes
 N12     C46     C45          132.01             .       .       .           yes
 C35     C46     C45          121.47             .       .       .           no 
 C29     C24     H15          113.00             .       .       .           no 
 C25     C24     H15          113.00             .       .       .           no 
 C33     C24     H15          113.00             .       .       .           no 
 C25     C26     H16          122.00             .       .       .           no 
 C27     C26     H16          121.00             .       .       .           no 
 C31     C30     H17          121.00             .       .       .           no 
 C29     C30     H17          122.00             .       .       .           no 
 C33     C34     H18          122.00             .       .       .           no 
 C35     C34     H18          121.00             .       .       .           no 
 C44     C37     H22          113.00             .       .       .           no 
 C41     C37     H22          113.00             .       .       .           no 
 C38     C37     H22          113.00             .       .       .           no 
 C38     C39     H23          122.00             .       .       .           no 
 C40     C39     H23          121.00             .       .       .           no 
 C41     C42     H24          122.00             .       .       .           no 
 C43     C42     H24          121.00             .       .       .           no 
 C46     C45     H25          121.00             .       .       .           no 
 C44     C45     H25          122.00             .       .       .           no 
 C48     C47     C56          106.04             .       .       .           no 
 C48     C47     C52          106.03             .       .       .           no 
 C52     C47     C56          106.03             .       .       .           no 
 C47     C48     C61          112.72             .       .       .           no 
 C47     C48     C49          125.73             .       .       .           no 
 C49     C48     C61          121.55             .       .       .           no 
 C48     C49     C50          116.99             .       .       .           no 
 N13     C50     C49          132.01             .       .       .           yes
 C49     C50     C63          121.47             .       .       .           no 
 N13     C50     C63          106.52             .       .       .           yes
 O7      C51     N13          127.91             .       .       .           yes
 O7      C51     N16          127.91             .       .       .           yes
 N13     C51     N16          104.18             .       .       .           yes
 C53     C52     C64          121.54             .       .       .           no 
 C47     C52     C53          125.73             .       .       .           no 
 C47     C52     C64          112.72             .       .       .           no 
 C52     C53     C54          116.98             .       .       .           no 
 C53     C54     C66          121.47             .       .       .           no 
 N14     C54     C66          106.52             .       .       .           yes
 N14     C54     C53          132.00             .       .       .           yes
 O8      C55     N14          127.91             .       .       .           yes
 N14     C55     N17          104.17             .       .       .           yes
 O8      C55     N17          127.91             .       .       .           yes
 C47     C56     C57          125.73             .       .       .           no 
 C47     C56     C67          112.72             .       .       .           no 
 C57     C56     C67          121.54             .       .       .           no 
 C56     C57     C58          116.98             .       .       .           no 
 N15     C58     C57          132.00             .       .       .           yes
 N15     C58     C69          106.53             .       .       .           yes
 C57     C58     C69          121.47             .       .       .           no 
 N15     C59     N18          104.18             .       .       .           yes
 O9      C59     N18          127.91             .       .       .           yes
 O9      C59     N15          127.91             .       .       .           yes
 C61     C60     C67          106.04             .       .       .           no 
 C64     C60     C67          106.04             .       .       .           no 
 C61     C60     C64          106.03             .       .       .           no 
 C48     C61     C60          112.72             .       .       .           no 
 C48     C61     C62          121.54             .       .       .           no 
 C60     C61     C62          125.74             .       .       .           no 
 C61     C62     C63          116.98             .       .       .           no 
 N16     C63     C62          132.00             .       .       .           yes
 N16     C63     C50          106.53             .       .       .           yes
 C50     C63     C62          121.47             .       .       .           no 
 C60     C64     C65          125.73             .       .       .           no 
 C52     C64     C60          112.72             .       .       .           no 
 C52     C64     C65          121.55             .       .       .           no 
 C64     C65     C66          116.99             .       .       .           no 
 N17     C66     C65          132.01             .       .       .           yes
 N17     C66     C54          106.53             .       .       .           yes
 C54     C66     C65          121.47             .       .       .           no 
 C60     C67     C68          125.73             .       .       .           no 
 C56     C67     C68          121.55             .       .       .           no 
 C56     C67     C60          112.72             .       .       .           no 
 C67     C68     C69          116.98             .       .       .           no 
 N18     C69     C68          132.01             .       .       .           yes
 C58     C69     C68          121.47             .       .       .           no 
 N18     C69     C58          106.53             .       .       .           yes
 C56     C47     H29          113.00             .       .       .           no 
 C52     C47     H29          113.00             .       .       .           no 
 C48     C47     H29          113.00             .       .       .           no 
 C50     C49     H30          121.00             .       .       .           no 
 C48     C49     H30          122.00             .       .       .           no 
 C54     C53     H31          121.00             .       .       .           no 
 C52     C53     H31          122.00             .       .       .           no 
 C56     C57     H32          122.00             .       .       .           no 
 C58     C57     H32          121.00             .       .       .           no 
 C67     C60     H36          113.00             .       .       .           no 
 C64     C60     H36          113.00             .       .       .           no 
 C61     C60     H36          113.00             .       .       .           no 
 C61     C62     H37          122.00             .       .       .           no 
 C63     C62     H37          121.00             .       .       .           no 
 C64     C65     H38          122.00             .       .       .           no 
 C66     C65     H38          121.00             .       .       .           no 
 C69     C68     H39          121.00             .       .       .           no 
 C67     C68     H39          122.00             .       .       .           no 
 C71     C70     C75          106.03             .       .       .           no 
 C75     C70     C79          106.03             .       .       .           no 
 C71     C70     C79          106.04             .       .       .           no 
 C70     C71     C84          112.72             .       .       .           no 
 C72     C71     C84          121.55             .       .       .           no 
 C70     C71     C72          125.73             .       .       .           no 
 C71     C72     C73          116.99             .       .       .           no 
 C72     C73     C86          121.47             .       .       .           no 
 N19     C73     C86          106.52             .       .       .           yes
 N19     C73     C72          132.01             .       .       .           yes
 O10     C74     N19          127.91             .       .       .           yes
 O10     C74     N22          127.91             .       .       .           yes
 N19     C74     N22          104.18             .       .       .           yes
 C70     C75     C76          125.73             .       .       .           no 
 C76     C75     C87          121.54             .       .       .           no 
 C70     C75     C87          112.72             .       .       .           no 
 C75     C76     C77          116.98             .       .       .           no 
 N20     C77     C76          132.00             .       .       .           yes
 N20     C77     C89          106.52             .       .       .           yes
 C76     C77     C89          121.47             .       .       .           no 
 O11     C78     N20          127.91             .       .       .           yes
 N20     C78     N23          104.17             .       .       .           yes
 O11     C78     N23          127.91             .       .       .           yes
 C70     C79     C90          112.72             .       .       .           no 
 C80     C79     C90          121.54             .       .       .           no 
 C70     C79     C80          125.73             .       .       .           no 
 C79     C80     C81          116.98             .       .       .           no 
 C80     C81     C92          121.47             .       .       .           no 
 N21     C81     C80          132.00             .       .       .           yes
 N21     C81     C92          106.53             .       .       .           yes
 O12     C82     N21          127.91             .       .       .           yes
 O12     C82     N24          127.91             .       .       .           yes
 N21     C82     N24          104.18             .       .       .           yes
 C87     C83     C90          106.04             .       .       .           no 
 C84     C83     C87          106.03             .       .       .           no 
 C84     C83     C90          106.04             .       .       .           no 
 C83     C84     C85          125.74             .       .       .           no 
 C71     C84     C85          121.54             .       .       .           no 
 C71     C84     C83          112.72             .       .       .           no 
 C84     C85     C86          116.98             .       .       .           no 
 N22     C86     C85          132.00             .       .       .           yes
 N22     C86     C73          106.53             .       .       .           yes
 C73     C86     C85          121.47             .       .       .           no 
 C75     C87     C83          112.72             .       .       .           no 
 C75     C87     C88          121.55             .       .       .           no 
 C83     C87     C88          125.73             .       .       .           no 
 C87     C88     C89          116.99             .       .       .           no 
 N23     C89     C77          106.53             .       .       .           yes
 N23     C89     C88          132.01             .       .       .           yes
 C77     C89     C88          121.46             .       .       .           no 
 C79     C90     C83          112.72             .       .       .           no 
 C79     C90     C91          121.55             .       .       .           no 
 C83     C90     C91          125.73             .       .       .           no 
 C90     C91     C92          116.98             .       .       .           no 
 N24     C92     C91          132.01             .       .       .           yes
 C81     C92     C91          121.47             .       .       .           no 
 N24     C92     C81          106.53             .       .       .           yes
 C71     C70     H43          113.00             .       .       .           no 
 C75     C70     H43          113.00             .       .       .           no 
 C79     C70     H43          113.00             .       .       .           no 
 C71     C72     H44          122.00             .       .       .           no 
 C73     C72     H44          121.00             .       .       .           no 
 C75     C76     H45          122.00             .       .       .           no 
 C77     C76     H45          121.00             .       .       .           no 
 C79     C80     H46          122.00             .       .       .           no 
 C81     C80     H46          121.00             .       .       .           no 
 C84     C83     H50          113.00             .       .       .           no 
 C87     C83     H50          113.00             .       .       .           no 
 C90     C83     H50          113.00             .       .       .           no 
 C84     C85     H51          122.00             .       .       .           no 
 C86     C85     H51          121.00             .       .       .           no 
 C87     C88     H52          122.00             .       .       .           no 
 C89     C88     H52          121.00             .       .       .           no 
 C90     C91     H53          122.00             .       .       .           no 
 C92     C91     H53          121.00             .       .       .           no 

loop_
_geom_torsion_atom_site_label_1     
_geom_torsion_atom_site_label_2     
_geom_torsion_atom_site_label_3     
_geom_torsion_atom_site_label_4     
_geom_torsion                       
_geom_torsion_site_symmetry_1       
_geom_torsion_site_symmetry_2       
_geom_torsion_site_symmetry_3       
_geom_torsion_site_symmetry_4       
_geom_torsion_publ_flag             
 C5      N1      C4      C17            0.00     .       .       .       .   no 
 C4      N1      C5      O1           179.98     .       .       .       .   no 
 C5      N1      C4      C3          -180.00     .       .       .       .   no 
 C4      N1      C5      N4            -0.02     .       .       .       .   no 
 C9      N2      C8      C20           -0.00     .       .       .       .   no 
 C9      N2      C8      C7          -180.00     .       .       .       .   no 
 C8      N2      C9      N5            -0.00     .       .       .       .   no 
 C8      N2      C9      O2          -180.00     .       .       .       .   no 
 C12     N3      C13     O3           179.97     .       .       .       .   no 
 C12     N3      C13     N6            -0.03     .       .       .       .   no 
 C13     N3      C12     C11         -180.00     .       .       .       .   no 
 C13     N3      C12     C23            0.03     .       .       .       .   no 
 C5      N4      C17     C16          180.00     .       .       .       .   no 
 C17     N4      C5      N1             0.00     .       .       .       .   no 
 C5      N4      C17     C4            -0.00     .       .       .       .   no 
 C17     N4      C5      O1          -180.00     .       .       .       .   no 
 C9      N5      C20     C8            -0.00     .       .       .       .   no 
 C20     N5      C9      N2             0.00     .       .       .       .   no 
 C9      N5      C20     C19          179.98     .       .       .       .   no 
 C20     N5      C9      O2           180.00     .       .       .       .   no 
 C13     N6      C23     C22          180.00     .       .       .       .   no 
 C23     N6      C13     N3             0.02     .       .       .       .   no 
 C23     N6      C13     O3          -179.98     .       .       .       .   no 
 C13     N6      C23     C12           -0.00     .       .       .       .   no 
 C28     N7      C27     C40            0.00     .       .       .       .   no 
 C27     N7      C28     O4           180.00     .       .       .       .   no 
 C27     N7      C28     N10           -0.00     .       .       .       .   no 
 C28     N7      C27     C26         -180.00     .       .       .       .   no 
 C31     N8      C32     N11           -0.03     .       .       .       .   no 
 C31     N8      C32     O5          -180.00     .       .       .       .   no 
 C32     N8      C31     C30         -180.00     .       .       .       .   no 
 C32     N8      C31     C43           -0.00     .       .       .       .   no 
 C35     N9      C36     O6           180.00     .       .       .       .   no 
 C35     N9      C36     N12           -0.02     .       .       .       .   no 
 C36     N9      C35     C46            0.00     .       .       .       .   no 
 C36     N9      C35     C34         -180.00     .       .       .       .   no 
 C28     N10     C40     C27           -0.00     .       .       .       .   no 
 C40     N10     C28     N7             0.00     .       .       .       .   no 
 C40     N10     C28     O4          -179.98     .       .       .       .   no 
 C28     N10     C40     C39          180.00     .       .       .       .   no 
 C43     N11     C32     N8             0.02     .       .       .       .   no 
 C43     N11     C32     O5           180.00     .       .       .       .   no 
 C32     N11     C43     C31           -0.02     .       .       .       .   no 
 C32     N11     C43     C42          179.98     .       .       .       .   no 
 C36     N12     C46     C45          179.98     .       .       .       .   no 
 C36     N12     C46     C35           -0.00     .       .       .       .   no 
 C46     N12     C36     O6          -179.97     .       .       .       .   no 
 C46     N12     C36     N9             0.02     .       .       .       .   no 
 C51     N13     C50     C63           -0.00     .       .       .       .   no 
 C51     N13     C50     C49          179.98     .       .       .       .   no 
 C50     N13     C51     N16            0.00     .       .       .       .   no 
 C50     N13     C51     O7          -180.00     .       .       .       .   no 
 C54     N14     C55     N17            0.00     .       .       .       .   no 
 C54     N14     C55     O8           180.00     .       .       .       .   no 
 C55     N14     C54     C53          180.00     .       .       .       .   no 
 C55     N14     C54     C66            0.00     .       .       .       .   no 
 C59     N15     C58     C57          179.98     .       .       .       .   no 
 C59     N15     C58     C69           -0.02     .       .       .       .   no 
 C58     N15     C59     N18            0.02     .       .       .       .   no 
 C58     N15     C59     O9          -179.98     .       .       .       .   no 
 C51     N16     C63     C50            0.00     .       .       .       .   no 
 C63     N16     C51     N13           -0.00     .       .       .       .   no 
 C51     N16     C63     C62         -180.00     .       .       .       .   no 
 C63     N16     C51     O7           180.00     .       .       .       .   no 
 C66     N17     C55     O8          -180.00     .       .       .       .   no 
 C55     N17     C66     C54            0.00     .       .       .       .   no 
 C55     N17     C66     C65         -179.98     .       .       .       .   no 
 C66     N17     C55     N14           -0.02     .       .       .       .   no 
 C59     N18     C69     C58            0.00     .       .       .       .   no 
 C69     N18     C59     O9           179.98     .       .       .       .   no 
 C59     N18     C69     C68         -179.98     .       .       .       .   no 
 C69     N18     C59     N15           -0.02     .       .       .       .   no 
 C73     N19     C74     N22            0.00     .       .       .       .   no 
 C74     N19     C73     C86           -0.00     .       .       .       .   no 
 C73     N19     C74     O10         -179.98     .       .       .       .   no 
 C74     N19     C73     C72          180.00     .       .       .       .   no 
 C78     N20     C77     C76          179.98     .       .       .       .   no 
 C77     N20     C78     N23            0.02     .       .       .       .   no 
 C78     N20     C77     C89            0.00     .       .       .       .   no 
 C77     N20     C78     O11          180.00     .       .       .       .   no 
 C81     N21     C82     N24            0.03     .       .       .       .   no 
 C81     N21     C82     O12         -180.00     .       .       .       .   no 
 C82     N21     C81     C92           -0.02     .       .       .       .   no 
 C82     N21     C81     C80          180.00     .       .       .       .   no 
 C86     N22     C74     N19           -0.00     .       .       .       .   no 
 C74     N22     C86     C85         -180.00     .       .       .       .   no 
 C74     N22     C86     C73            0.00     .       .       .       .   no 
 C86     N22     C74     O10          180.00     .       .       .       .   no 
 C78     N23     C89     C77            0.00     .       .       .       .   no 
 C89     N23     C78     O11         -180.00     .       .       .       .   no 
 C78     N23     C89     C88         -179.98     .       .       .       .   no 
 C89     N23     C78     N20           -0.00     .       .       .       .   no 
 C92     N24     C82     N21           -0.03     .       .       .       .   no 
 C82     N24     C92     C81            0.02     .       .       .       .   no 
 C92     N24     C82     O12          180.00     .       .       .       .   no 
 C82     N24     C92     C91         -180.00     .       .       .       .   no 
 C6      C1      C10     C21           56.22     .       .       .       .   no 
 C2      C1      C10     C21          -56.22     .       .       .       .   no 
 C10     C1      C2      C3          -123.79     .       .       .       .   no 
 C6      C1      C10     C11         -123.75     .       .       .       .   no 
 C2      C1      C10     C11          123.81     .       .       .       .   no 
 C10     C1      C6      C18          -56.22     .       .       .       .   no 
 C2      C1      C6      C7          -123.78     .       .       .       .   no 
 C6      C1      C2      C3           123.77     .       .       .       .   no 
 C10     C1      C6      C7           123.77     .       .       .       .   no 
 C2      C1      C6      C18           56.22     .       .       .       .   no 
 C10     C1      C2      C15           56.22     .       .       .       .   no 
 C6      C1      C2      C15          -56.22     .       .       .       .   no 
 C1      C2      C3      C4          -180.00     .       .       .       .   no 
 C3      C2      C15     C14         -179.98     .       .       .       .   no 
 C1      C2      C15     C16          180.00     .       .       .       .   no 
 C1      C2      C15     C14           -0.00     .       .       .       .   no 
 C3      C2      C15     C16            0.00     .       .       .       .   no 
 C15     C2      C3      C4            -0.00     .       .       .       .   no 
 C2      C3      C4      C17           -0.00     .       .       .       .   no 
 C2      C3      C4      N1           180.00     .       .       .       .   no 
 N1      C4      C17     N4            -0.00     .       .       .       .   no 
 C3      C4      C17     N4           180.00     .       .       .       .   no 
 N1      C4      C17     C16         -179.98     .       .       .       .   no 
 C3      C4      C17     C16            0.00     .       .       .       .   no 
 C18     C6      C7      C8            -0.00     .       .       .       .   no 
 C1      C6      C7      C8           180.00     .       .       .       .   no 
 C1      C6      C18     C14            0.03     .       .       .       .   no 
 C7      C6      C18     C19            0.00     .       .       .       .   no 
 C7      C6      C18     C14         -180.00     .       .       .       .   no 
 C1      C6      C18     C19          179.98     .       .       .       .   no 
 C6      C7      C8      N2           180.00     .       .       .       .   no 
 C6      C7      C8      C20            0.00     .       .       .       .   no 
 N2      C8      C20     C19         -180.00     .       .       .       .   no 
 N2      C8      C20     N5             0.00     .       .       .       .   no 
 C7      C8      C20     C19           -0.00     .       .       .       .   no 
 C7      C8      C20     N5           180.00     .       .       .       .   no 
 C11     C10     C21     C22           -0.02     .       .       .       .   no 
 C11     C10     C21     C14          179.97     .       .       .       .   no 
 C21     C10     C11     C12            0.00     .       .       .       .   no 
 C1      C10     C11     C12          180.00     .       .       .       .   no 
 C1      C10     C21     C22         -179.97     .       .       .       .   no 
 C1      C10     C21     C14           -0.00     .       .       .       .   no 
 C10     C11     C12     N3           180.00     .       .       .       .   no 
 C10     C11     C12     C23           -0.00     .       .       .       .   no 
 C11     C12     C23     N6          -180.00     .       .       .       .   no 
 N3      C12     C23     C22         -180.00     .       .       .       .   no 
 C11     C12     C23     C22            0.02     .       .       .       .   no 
 N3      C12     C23     N6            -0.00     .       .       .       .   no 
 C15     C14     C21     C22         -123.81     .       .       .       .   no 
 C18     C14     C21     C10          -56.22     .       .       .       .   no 
 C21     C14     C15     C16          123.79     .       .       .       .   no 
 C18     C14     C21     C22          123.76     .       .       .       .   no 
 C15     C14     C18     C19          123.78     .       .       .       .   no 
 C21     C14     C18     C6            56.22     .       .       .       .   no 
 C18     C14     C15     C2            56.23     .       .       .       .   no 
 C18     C14     C15     C16         -123.77     .       .       .       .   no 
 C21     C14     C15     C2           -56.21     .       .       .       .   no 
 C15     C14     C18     C6           -56.22     .       .       .       .   no 
 C15     C14     C21     C10           56.22     .       .       .       .   no 
 C21     C14     C18     C19         -123.77     .       .       .       .   no 
 C2      C15     C16     C17           -0.00     .       .       .       .   no 
 C14     C15     C16     C17          180.00     .       .       .       .   no 
 C15     C16     C17     N4          -180.00     .       .       .       .   no 
 C15     C16     C17     C4            -0.02     .       .       .       .   no 
 C14     C18     C19     C20          180.00     .       .       .       .   no 
 C6      C18     C19     C20            0.00     .       .       .       .   no 
 C18     C19     C20     N5          -180.00     .       .       .       .   no 
 C18     C19     C20     C8            -0.00     .       .       .       .   no 
 C14     C21     C22     C23         -179.98     .       .       .       .   no 
 C10     C21     C22     C23           -0.00     .       .       .       .   no 
 C21     C22     C23     N6          -180.00     .       .       .       .   no 
 C21     C22     C23     C12           -0.00     .       .       .       .   no 
 C33     C24     C29     C30          123.77     .       .       .       .   no 
 C25     C24     C33     C44          -56.22     .       .       .       .   no 
 C25     C24     C33     C34          123.81     .       .       .       .   no 
 C29     C24     C25     C26          123.77     .       .       .       .   no 
 C25     C24     C29     C41           56.22     .       .       .       .   no 
 C29     C24     C33     C44           56.22     .       .       .       .   no 
 C33     C24     C29     C41          -56.22     .       .       .       .   no 
 C29     C24     C25     C38          -56.22     .       .       .       .   no 
 C29     C24     C33     C34         -123.75     .       .       .       .   no 
 C33     C24     C25     C26         -123.79     .       .       .       .   no 
 C25     C24     C29     C30         -123.78     .       .       .       .   no 
 C33     C24     C25     C38           56.22     .       .       .       .   no 
 C24     C25     C38     C37           -0.02     .       .       .       .   no 
 C24     C25     C26     C27         -179.98     .       .       .       .   no 
 C26     C25     C38     C37         -179.98     .       .       .       .   no 
 C38     C25     C26     C27           -0.00     .       .       .       .   no 
 C24     C25     C38     C39          180.00     .       .       .       .   no 
 C26     C25     C38     C39            0.02     .       .       .       .   no 
 C25     C26     C27     N7           180.00     .       .       .       .   no 
 C25     C26     C27     C40           -0.00     .       .       .       .   no 
 N7      C27     C40     C39         -180.00     .       .       .       .   no 
 C26     C27     C40     N10          180.00     .       .       .       .   no 
 C26     C27     C40     C39            0.00     .       .       .       .   no 
 N7      C27     C40     N10           -0.00     .       .       .       .   no 
 C24     C29     C41     C42          180.00     .       .       .       .   no 
 C24     C29     C30     C31          180.00     .       .       .       .   no 
 C41     C29     C30     C31           -0.00     .       .       .       .   no 
 C30     C29     C41     C42            0.00     .       .       .       .   no 
 C30     C29     C41     C37         -180.00     .       .       .       .   no 
 C24     C29     C41     C37            0.00     .       .       .       .   no 
 C29     C30     C31     C43            0.00     .       .       .       .   no 
 C29     C30     C31     N8           180.00     .       .       .       .   no 
 C30     C31     C43     C42           -0.00     .       .       .       .   no 
 N8      C31     C43     C42         -179.98     .       .       .       .   no 
 N8      C31     C43     N11            0.02     .       .       .       .   no 
 C30     C31     C43     N11          180.00     .       .       .       .   no 
 C24     C33     C34     C35          180.00     .       .       .       .   no 
 C34     C33     C44     C45           -0.00     .       .       .       .   no 
 C44     C33     C34     C35            0.00     .       .       .       .   no 
 C34     C33     C44     C37          179.98     .       .       .       .   no 
 C24     C33     C44     C45         -179.97     .       .       .       .   no 
 C24     C33     C44     C37           -0.02     .       .       .       .   no 
 C33     C34     C35     C46           -0.00     .       .       .       .   no 
 C33     C34     C35     N9           180.00     .       .       .       .   no 
 N9      C35     C46     C45         -180.00     .       .       .       .   no 
 N9      C35     C46     N12           -0.00     .       .       .       .   no 
 C34     C35     C46     N12         -180.00     .       .       .       .   no 
 C34     C35     C46     C45            0.00     .       .       .       .   no 
 C41     C37     C44     C33          -56.22     .       .       .       .   no 
 C44     C37     C38     C39          123.79     .       .       .       .   no 
 C41     C37     C38     C25           56.23     .       .       .       .   no 
 C38     C37     C41     C29          -56.22     .       .       .       .   no 
 C41     C37     C38     C39         -123.77     .       .       .       .   no 
 C38     C37     C44     C45         -123.81     .       .       .       .   no 
 C44     C37     C41     C29           56.22     .       .       .       .   no 
 C38     C37     C41     C42          123.78     .       .       .       .   no 
 C41     C37     C44     C45          123.76     .       .       .       .   no 
 C44     C37     C38     C25          -56.21     .       .       .       .   no 
 C44     C37     C41     C42         -123.77     .       .       .       .   no 
 C38     C37     C44     C33           56.22     .       .       .       .   no 
 C37     C38     C39     C40          180.00     .       .       .       .   no 
 C25     C38     C39     C40           -0.00     .       .       .       .   no 
 C38     C39     C40     N10         -180.00     .       .       .       .   no 
 C38     C39     C40     C27           -0.00     .       .       .       .   no 
 C29     C41     C42     C43            0.00     .       .       .       .   no 
 C37     C41     C42     C43          179.98     .       .       .       .   no 
 C41     C42     C43     C31           -0.02     .       .       .       .   no 
 C41     C42     C43     N11         -179.98     .       .       .       .   no 
 C37     C44     C45     C46         -179.98     .       .       .       .   no 
 C33     C44     C45     C46           -0.00     .       .       .       .   no 
 C44     C45     C46     C35           -0.00     .       .       .       .   no 
 C44     C45     C46     N12         -180.00     .       .       .       .   no 
 C56     C47     C52     C53         -123.77     .       .       .       .   no 
 C48     C47     C56     C57         -123.81     .       .       .       .   no 
 C52     C47     C56     C67          -56.22     .       .       .       .   no 
 C48     C47     C52     C64          -56.22     .       .       .       .   no 
 C48     C47     C56     C67           56.22     .       .       .       .   no 
 C56     C47     C48     C49          123.79     .       .       .       .   no 
 C48     C47     C52     C53          123.78     .       .       .       .   no 
 C52     C47     C48     C61           56.22     .       .       .       .   no 
 C52     C47     C48     C49         -123.77     .       .       .       .   no 
 C52     C47     C56     C57          123.75     .       .       .       .   no 
 C56     C47     C52     C64           56.22     .       .       .       .   no 
 C56     C47     C48     C61          -56.22     .       .       .       .   no 
 C49     C48     C61     C60          180.00     .       .       .       .   no 
 C49     C48     C61     C62           -0.00     .       .       .       .   no 
 C47     C48     C49     C50          179.97     .       .       .       .   no 
 C47     C48     C61     C62         -180.00     .       .       .       .   no 
 C47     C48     C61     C60            0.00     .       .       .       .   no 
 C61     C48     C49     C50            0.00     .       .       .       .   no 
 C48     C49     C50     C63            0.03     .       .       .       .   no 
 C48     C49     C50     N13         -179.97     .       .       .       .   no 
 N13     C50     C63     C62          180.00     .       .       .       .   no 
 C49     C50     C63     C62           -0.02     .       .       .       .   no 
 C49     C50     C63     N16         -180.00     .       .       .       .   no 
 N13     C50     C63     N16            0.02     .       .       .       .   no 
 C47     C52     C53     C54         -179.97     .       .       .       .   no 
 C53     C52     C64     C60          180.00     .       .       .       .   no 
 C47     C52     C64     C65         -180.00     .       .       .       .   no 
 C64     C52     C53     C54            0.00     .       .       .       .   no 
 C47     C52     C64     C60           -0.00     .       .       .       .   no 
 C53     C52     C64     C65           -0.00     .       .       .       .   no 
 C52     C53     C54     N14         -180.00     .       .       .       .   no 
 C52     C53     C54     C66           -0.00     .       .       .       .   no 
 C53     C54     C66     C65            0.00     .       .       .       .   no 
 C53     C54     C66     N17         -180.00     .       .       .       .   no 
 N14     C54     C66     C65          180.00     .       .       .       .   no 
 N14     C54     C66     N17           -0.00     .       .       .       .   no 
 C57     C56     C67     C60         -179.97     .       .       .       .   no 
 C57     C56     C67     C68            0.00     .       .       .       .   no 
 C67     C56     C57     C58           -0.00     .       .       .       .   no 
 C47     C56     C57     C58         -179.98     .       .       .       .   no 
 C47     C56     C67     C60            0.00     .       .       .       .   no 
 C47     C56     C67     C68          179.98     .       .       .       .   no 
 C56     C57     C58     C69            0.00     .       .       .       .   no 
 C56     C57     C58     N15         -180.00     .       .       .       .   no 
 N15     C58     C69     N18            0.00     .       .       .       .   no 
 C57     C58     C69     C68           -0.00     .       .       .       .   no 
 N15     C58     C69     C68          180.00     .       .       .       .   no 
 C57     C58     C69     N18          180.00     .       .       .       .   no 
 C61     C60     C64     C52           56.22     .       .       .       .   no 
 C61     C60     C67     C56          -56.22     .       .       .       .   no 
 C67     C60     C64     C65          123.77     .       .       .       .   no 
 C64     C60     C67     C56           56.22     .       .       .       .   no 
 C61     C60     C67     C68          123.81     .       .       .       .   no 
 C67     C60     C61     C62         -123.79     .       .       .       .   no 
 C64     C60     C67     C68         -123.75     .       .       .       .   no 
 C61     C60     C64     C65         -123.78     .       .       .       .   no 
 C67     C60     C64     C52          -56.22     .       .       .       .   no 
 C67     C60     C61     C48           56.22     .       .       .       .   no 
 C64     C60     C61     C62          123.77     .       .       .       .   no 
 C64     C60     C61     C48          -56.23     .       .       .       .   no 
 C48     C61     C62     C63            0.00     .       .       .       .   no 
 C60     C61     C62     C63         -180.00     .       .       .       .   no 
 C61     C62     C63     C50            0.00     .       .       .       .   no 
 C61     C62     C63     N16          180.00     .       .       .       .   no 
 C60     C64     C65     C66         -180.00     .       .       .       .   no 
 C52     C64     C65     C66           -0.00     .       .       .       .   no 
 C64     C65     C66     C54            0.00     .       .       .       .   no 
 C64     C65     C66     N17          180.00     .       .       .       .   no 
 C60     C67     C68     C69          179.98     .       .       .       .   no 
 C56     C67     C68     C69            0.00     .       .       .       .   no 
 C67     C68     C69     C58            0.00     .       .       .       .   no 
 C67     C68     C69     N18          180.00     .       .       .       .   no 
 C71     C70     C79     C90           56.22     .       .       .       .   no 
 C75     C70     C71     C84           56.22     .       .       .       .   no 
 C79     C70     C75     C87           56.22     .       .       .       .   no 
 C79     C70     C71     C84          -56.22     .       .       .       .   no 
 C79     C70     C75     C76         -123.77     .       .       .       .   no 
 C71     C70     C75     C76          123.78     .       .       .       .   no 
 C71     C70     C75     C87          -56.22     .       .       .       .   no 
 C71     C70     C79     C80         -123.81     .       .       .       .   no 
 C75     C70     C79     C80          123.75     .       .       .       .   no 
 C75     C70     C71     C72         -123.77     .       .       .       .   no 
 C79     C70     C71     C72          123.79     .       .       .       .   no 
 C75     C70     C79     C90          -56.22     .       .       .       .   no 
 C70     C71     C84     C83            0.00     .       .       .       .   no 
 C84     C71     C72     C73            0.00     .       .       .       .   no 
 C70     C71     C72     C73          180.00     .       .       .       .   no 
 C70     C71     C84     C85         -179.98     .       .       .       .   no 
 C72     C71     C84     C85           -0.03     .       .       .       .   no 
 C72     C71     C84     C83          179.98     .       .       .       .   no 
 C71     C72     C73     C86            0.00     .       .       .       .   no 
 C71     C72     C73     N19         -180.00     .       .       .       .   no 
 N19     C73     C86     C85          180.00     .       .       .       .   no 
 N19     C73     C86     N22            0.00     .       .       .       .   no 
 C72     C73     C86     C85           -0.02     .       .       .       .   no 
 C72     C73     C86     N22         -180.00     .       .       .       .   no 
 C76     C75     C87     C83          179.98     .       .       .       .   no 
 C76     C75     C87     C88           -0.00     .       .       .       .   no 
 C70     C75     C76     C77         -180.00     .       .       .       .   no 
 C70     C75     C87     C88         -180.00     .       .       .       .   no 
 C87     C75     C76     C77            0.00     .       .       .       .   no 
 C70     C75     C87     C83           -0.00     .       .       .       .   no 
 C75     C76     C77     N20         -180.00     .       .       .       .   no 
 C75     C76     C77     C89           -0.00     .       .       .       .   no 
 N20     C77     C89     N23           -0.00     .       .       .       .   no 
 N20     C77     C89     C88          179.97     .       .       .       .   no 
 C76     C77     C89     C88            0.00     .       .       .       .   no 
 C76     C77     C89     N23         -180.00     .       .       .       .   no 
 C80     C79     C90     C83         -179.97     .       .       .       .   no 
 C70     C79     C90     C91          179.98     .       .       .       .   no 
 C80     C79     C90     C91            0.00     .       .       .       .   no 
 C70     C79     C80     C81         -179.97     .       .       .       .   no 
 C70     C79     C90     C83            0.02     .       .       .       .   no 
 C90     C79     C80     C81           -0.02     .       .       .       .   no 
 C79     C80     C81     N21         -179.98     .       .       .       .   no 
 C79     C80     C81     C92            0.03     .       .       .       .   no 
 C80     C81     C92     N24          179.98     .       .       .       .   no 
 C80     C81     C92     C91           -0.02     .       .       .       .   no 
 N21     C81     C92     C91          180.00     .       .       .       .   no 
 N21     C81     C92     N24            0.02     .       .       .       .   no 
 C90     C83     C84     C85         -123.79     .       .       .       .   no 
 C84     C83     C87     C75           56.22     .       .       .       .   no 
 C84     C83     C87     C88         -123.78     .       .       .       .   no 
 C84     C83     C90     C91          123.81     .       .       .       .   no 
 C87     C83     C90     C79           56.22     .       .       .       .   no 
 C87     C83     C90     C91         -123.75     .       .       .       .   no 
 C90     C83     C87     C88          123.77     .       .       .       .   no 
 C90     C83     C87     C75          -56.22     .       .       .       .   no 
 C87     C83     C84     C71          -56.23     .       .       .       .   no 
 C87     C83     C84     C85          123.77     .       .       .       .   no 
 C90     C83     C84     C71           56.21     .       .       .       .   no 
 C84     C83     C90     C79          -56.22     .       .       .       .   no 
 C71     C84     C85     C86            0.03     .       .       .       .   no 
 C83     C84     C85     C86         -180.00     .       .       .       .   no 
 C84     C85     C86     C73            0.00     .       .       .       .   no 
 C84     C85     C86     N22          179.97     .       .       .       .   no 
 C75     C87     C88     C89           -0.00     .       .       .       .   no 
 C83     C87     C88     C89         -180.00     .       .       .       .   no 
 C87     C88     C89     C77            0.00     .       .       .       .   no 
 C87     C88     C89     N23          180.00     .       .       .       .   no 
 C79     C90     C91     C92            0.00     .       .       .       .   no 
 C83     C90     C91     C92          179.98     .       .       .       .   no 
 C90     C91     C92     C81            0.00     .       .       .       .   no 
 C90     C91     C92     N24          180.00     .       .       .       .   no 

loop_
_geom_contact_atom_site_label_1     
_geom_contact_atom_site_label_2     
_geom_contact_distance              
_geom_contact_site_symmetry_1       
_geom_contact_site_symmetry_2       
_geom_contact_publ_flag             
 O1      N2           2.6895                     .     1_455                 no 
 O2      C73          3.2080                     .     1_556                 no 
 O2      C74          3.1469                     .     1_556                 no 
 O2      C86          3.1568                     .     1_556                 no 
 O2      O9           3.2195                     .     1_645                 no 
 O2      N12          2.7383                     .       .                   no 
 O2      N19          3.1810                     .     1_556                 no 
 O2      N22          3.0999                     .     1_556                 no 
 O3      C55          3.0678                     .     1_645                 no 
 O3      O8           3.2195                     .     1_645                 no 
 O3      N16          2.9446                     .     1_545                 no 
 O4      N8           2.6895                     .     1_655                 no 
 O5      C51          3.1469                     .       .                   no 
 O5      C50          3.2080                     .       .                   no 
 O5      O12          3.2195                     .     1_456                 no 
 O5      N6           2.7383                     .     1_565                 no 
 O5      C63          3.1568                     .       .                   no 
 O5      N16          3.0999                     .       .                   no 
 O5      N13          3.1810                     .       .                   no 
 O6      N22          2.9446                     .     1_556                 no 
 O6      O11          3.2195                     .     1_456                 no 
 O6      C78          3.0678                     .     1_456                 no 
 O7      N14          2.6895                     .     1_655                 no 
 O8      N10          3.0999                     .     1_554                 no 
 O8      N7           3.1810                     .     1_554                 no 
 O8      N24          2.7383                     .       .                   no 
 O8      O3           3.2195                     .     1_465                 no 
 O8      C28          3.1469                     .     1_554                 no 
 O8      C40          3.1568                     .     1_554                 no 
 O8      C27          3.2080                     .     1_554                 no 
 O9      O2           3.2195                     .     1_465                 no 
 O9      C9           3.0678                     .     1_465                 no 
 O9      N4           2.9446                     .     1_565                 no 
 O11     C17          3.1568                     .       .                   no 
 O11     N18          2.7383                     .     1_545                 no 
 O11     N1           3.1810                     .       .                   no 
 O11     N4           3.0999                     .       .                   no 
 O11     C5           3.1469                     .       .                   no 
 O11     C4           3.2080                     .       .                   no 
 O11     O6           3.2195                     .     1_654                 no 
 O12     C32          3.0678                     .     1_654                 no 
 O12     O5           3.2195                     .     1_654                 no 
 O12     N10          2.9446                     .     1_554                 no 
 O1      H6           1.7400                     .     1_455                 no 
 O1      H55          2.4900                     .       .                   no 
 O1      H25          2.5900                     .     1_455                 no 
 O2      H28          1.8300                     .       .                   no 
 O2      H12          2.6600                     .     1_655                 no 
 O3      H19          2.8400                     .     1_644                 no 
 O3      H40          2.1300                     .     1_545                 no 
 O4      H41          2.4900                     .     1_556                 no 
 O4      H11          2.5900                     .     1_665                 no 
 O4      H20          1.7400                     .     1_655                 no 
 O5      H26          2.6600                     .     1_455                 no 
 O5      H14          1.8300                     .     1_565                 no 
 O6      H54          2.1300                     .     1_556                 no 
 O6      H5           2.8400                     .     1_456                 no 
 O7      H53          2.5900                     .     1_655                 no 
 O7      H27          2.4900                     .       .                   no 
 O7      H34          1.7400                     .     1_655                 no 
 O8      H56          1.8300                     .       .                   no 
 O8      H40          2.6600                     .     1_455                 no 
 O9      H47          2.8400                     .     1_466                 no 
 O9      H12          2.1300                     .     1_565                 no 
 O11     H54          2.6600                     .     1_655                 no 
 O11     H42          1.8300                     .     1_545                 no 
 O12     H26          2.1300                     .     1_554                 no 
 N1      N4           2.1924                     .       .                   no 
 N1      O11          3.1810                     .       .                   no 
 N2      C5           3.3641                     .     1_655                 no 
 N2      N5           2.1924                     .       .                   no 
 N2      O1           2.6895                     .     1_655                 no 
 N3      N6           2.1924                     .       .                   no 
 N4      O9           2.9446                     .     1_545                 no 
 N4      O11          3.0999                     .       .                   no 
 N6      O5           2.7383                     .     1_545                 no 
 N7      O8           3.1810                     .     1_556                 no 
 N7      N10          2.1924                     .       .                   no 
 N8      O4           2.6895                     .     1_455                 no 
 N8      C28          3.3641                     .     1_455                 no 
 N8      N11          2.1924                     .       .                   no 
 N9      N12          2.1924                     .       .                   no 
 N10     O8           3.0999                     .     1_556                 no 
 N10     O12          2.9446                     .     1_556                 no 
 N12     O2           2.7383                     .       .                   no 
 N13     N16          2.1924                     .       .                   no 
 N13     O5           3.1810                     .       .                   no 
 N14     N17          2.1924                     .       .                   no 
 N14     C51          3.3641                     .     1_455                 no 
 N14     O7           2.6895                     .     1_455                 no 
 N15     N18          2.1924                     .       .                   no 
 N16     O5           3.0999                     .       .                   no 
 N16     O3           2.9446                     .     1_565                 no 
 N18     O11          2.7383                     .     1_565                 no 
 N19     N22          2.1924                     .       .                   no 
 N20     C74          3.3641                     .     1_655                 no 
 N20     O10          2.6895                     .     1_655                 no 
 N20     N23          2.1924                     .       .                   no 
 N21     N24          2.1924                     .       .                   no 
 N22     O6           2.9446                     .     1_554                 no 
 N24     O8           2.7383                     .       .                   no 
 N2      H12          2.8600                     .     1_655                 no 
 N4      H42          2.7700                     .     1_545                 no 
 N8      H26          2.8600                     .     1_455                 no 
 N10     H56          2.7700                     .     1_556                 no 
 N14     H40          2.8600                     .     1_455                 no 
 N16     H14          2.7700                     .     1_565                 no 
 N20     H54          2.8600                     .     1_655                 no 
 N22     H28          2.7700                     .     1_554                 no 
 C4      O11          3.2080                     .       .                   no 
 C5      N2           3.3641                     .     1_455                 no 
 C5      O11          3.1469                     .       .                   no 
 C9      O9           3.0678                     .     1_645                 no 
 C17     O11          3.1568                     .       .                   no 
 C27     O8           3.2080                     .     1_556                 no 
 C28     O8           3.1469                     .     1_556                 no 
 C28     N8           3.3641                     .     1_655                 no 
 C32     O12          3.0678                     .     1_456                 no 
 C40     O8           3.1568                     .     1_556                 no 
 C50     O5           3.2080                     .       .                   no 
 C51     O5           3.1469                     .       .                   no 
 C51     N14          3.3641                     .     1_655                 no 
 C55     O3           3.0678                     .     1_465                 no 
 C63     O5           3.1568                     .       .                   no 
 C78     O6           3.0678                     .     1_654                 no 
 C2      H46          2.8200                     .     1_456                 no 
 C3      H49          3.0900                     .     1_456                 no 
 C5      H6           2.5900                     .     1_455                 no 
 C5      H55          2.8500                     .       .                   no 
 C6      H46          2.9500                     .     1_456                 no 
 C9      H12          2.8100                     .     1_655                 no 
 C9      H28          2.7700                     .       .                   no 
 C13     H40          2.9400                     .     1_545                 no 
 C15     H46          2.8400                     .     1_456                 no 
 C16     H42          3.0400                     .     1_545                 no 
 C17     H42          2.8000                     .     1_545                 no 
 C18     H46          2.9600                     .     1_456                 no 
 C19     H43          3.0500                     .     1_456                 no 
 C25     H32          2.8200                     .     1_655                 no 
 C26     H35          3.0900                     .     1_655                 no 
 C28     H20          2.5900                     .     1_655                 no 
 C28     H41          2.8500                     .     1_556                 no 
 C29     H32          2.9500                     .     1_655                 no 
 C32     H26          2.8100                     .     1_455                 no 
 C32     H14          2.7700                     .     1_565                 no 
 C36     H54          2.9400                     .     1_556                 no 
 C38     H32          2.8400                     .     1_655                 no 
 C39     H56          3.0400                     .     1_556                 no 
 C40     H56          2.8000                     .     1_556                 no 
 C41     H32          2.9600                     .     1_655                 no 
 C42     H29          3.0500                     .     1_655                 no 
 C48     H18          2.8200                     .     1_654                 no 
 C49     H21          3.0900                     .     1_654                 no 
 C51     H27          2.8500                     .       .                   no 
 C51     H34          2.5900                     .     1_655                 no 
 C52     H18          2.9500                     .     1_654                 no 
 C55     H56          2.7700                     .       .                   no 
 C55     H40          2.8100                     .     1_455                 no 
 C59     H12          2.9400                     .     1_565                 no 
 C61     H18          2.8400                     .     1_654                 no 
 C62     H14          3.0400                     .     1_565                 no 
 C63     H14          2.8000                     .     1_565                 no 
 C64     H18          2.9600                     .     1_654                 no 
 C65     H15          3.0500                     .     1_654                 no 
 C71     H4           2.8200                     .     1_455                 no 
 C72     H7           3.0900                     .     1_455                 no 
 C75     H4           2.9500                     .     1_455                 no 
 C78     H54          2.8100                     .     1_655                 no 
 C78     H42          2.7700                     .     1_545                 no 
 C82     H26          2.9400                     .     1_554                 no 
 C84     H4           2.8400                     .     1_455                 no 
 C85     H28          3.0400                     .     1_554                 no 
 C86     H28          2.8000                     .     1_554                 no 
 C87     H4           2.9600                     .     1_455                 no 
 C88     H1           3.0500                     .     1_455                 no 
 H1      H2           2.5900                     .       .                   no 
 H1      H3           2.5900                     .       .                   no 
 H1      C88          3.0500                     .     1_655                 no 
 H1      H4           2.5900                     .       .                   no 
 H2      H51          2.4200                     .     1_655                 no 
 H2      H1           2.5900                     .       .                   no 
 H3      H1           2.5900                     .       .                   no 
 H3      H55          2.5700                     .     1_655                 no 
 H4      C75          2.9500                     .     1_655                 no 
 H4      C87          2.9600                     .     1_655                 no 
 H4      C84          2.8400                     .     1_655                 no 
 H4      C71          2.8200                     .     1_655                 no 
 H4      H1           2.5900                     .       .                   no 
 H5      O6           2.8400                     .     1_654                 no 
 H6      O1           1.7400                     .     1_655                 no 
 H6      C5           2.5900                     .     1_655                 no 
 H7      C72          3.0900                     .     1_655                 no 
 H8      H9           2.5900                     .       .                   no 
 H8      H11          2.5900                     .       .                   no 
 H8      H10          2.5900                     .       .                   no 
 H9      H44          2.4200                     .     1_456                 no 
 H9      H8           2.5900                     .       .                   no 
 H10     H8           2.5900                     .       .                   no 
 H11     O4           2.5900                     .     1_445                 no 
 H11     H8           2.5900                     .       .                   no 
 H12     O9           2.1300                     .     1_545                 no 
 H12     O2           2.6600                     .     1_455                 no 
 H12     C9           2.8100                     .     1_455                 no 
 H12     C59          2.9400                     .     1_545                 no 
 H12     N2           2.8600                     .     1_455                 no 
 H13     O10          2.4900                     .     1_556                 no 
 H13     C74          2.8500                     .     1_556                 no 
 H13     H45          2.5700                     .     1_456                 no 
 H14     O5           1.8300                     .     1_545                 no 
 H14     N16          2.7700                     .     1_545                 no 
 H14     C62          3.0400                     .     1_545                 no 
 H14     C63          2.8000                     .     1_545                 no 
 H14     C32          2.7700                     .     1_545                 no 
 H15     C65          3.0500                     .     1_456                 no 
 H15     H17          2.5900                     .       .                   no 
 H15     H18          2.5900                     .       .                   no 
 H15     H16          2.5900                     .       .                   no 
 H16     H15          2.5900                     .       .                   no 
 H16     H37          2.4200                     .     1_456                 no 
 H17     H15          2.5900                     .       .                   no 
 H17     H41          2.5700                     .     1_456                 no 
 H18     C48          2.8200                     .     1_456                 no 
 H18     C52          2.9500                     .     1_456                 no 
 H18     C61          2.8400                     .     1_456                 no 
 H18     C64          2.9600                     .     1_456                 no 
 H18     H15          2.5900                     .       .                   no 
 H19     O3           2.8400                     .     1_466                 no 
 H20     O4           1.7400                     .     1_455                 no 
 H20     C28          2.5900                     .     1_455                 no 
 H21     C49          3.0900                     .     1_456                 no 
 H22     H23          2.5900                     .       .                   no 
 H22     H24          2.5900                     .       .                   no 
 H22     H25          2.5900                     .       .                   no 
 H23     H22          2.5900                     .       .                   no 
 H23     H30          2.4200                     .     1_655                 no 
 H24     H22          2.5900                     .       .                   no 
 H25     H22          2.5900                     .       .                   no 
 H25     O1           2.5900                     .     1_655                 no 
 H26     O5           2.6600                     .     1_655                 no 
 H26     C82          2.9400                     .     1_556                 no 
 H26     O12          2.1300                     .     1_556                 no 
 H26     N8           2.8600                     .     1_655                 no 
 H26     C32          2.8100                     .     1_655                 no 
 H27     O7           2.4900                     .       .                   no 
 H27     C51          2.8500                     .       .                   no 
 H27     H31          2.5700                     .     1_655                 no 
 H28     N22          2.7700                     .     1_556                 no 
 H28     C9           2.7700                     .       .                   no 
 H28     C85          3.0400                     .     1_556                 no 
 H28     C86          2.8000                     .     1_556                 no 
 H28     O2           1.8300                     .       .                   no 
 H29     H30          2.5900                     .       .                   no 
 H29     H31          2.5900                     .       .                   no 
 H29     C42          3.0500                     .     1_455                 no 
 H29     H32          2.5900                     .       .                   no 
 H30     H29          2.5900                     .       .                   no 
 H30     H23          2.4200                     .     1_455                 no 
 H31     H29          2.5900                     .       .                   no 
 H31     H27          2.5700                     .     1_455                 no 
 H32     C41          2.9600                     .     1_455                 no 
 H32     H29          2.5900                     .       .                   no 
 H32     C38          2.8400                     .     1_455                 no 
 H32     C29          2.9500                     .     1_455                 no 
 H32     C25          2.8200                     .     1_455                 no 
 H33     O12          2.8400                     .     1_456                 no 
 H34     O7           1.7400                     .     1_455                 no 
 H34     C51          2.5900                     .     1_455                 no 
 H35     C26          3.0900                     .     1_455                 no 
 H36     H39          2.5900                     .       .                   no 
 H36     H37          2.5900                     .       .                   no 
 H36     H38          2.5900                     .       .                   no 
 H37     H16          2.4200                     .     1_654                 no 
 H37     H36          2.5900                     .       .                   no 
 H38     H36          2.5900                     .       .                   no 
 H39     H36          2.5900                     .       .                   no 
 H39     O10          2.5900                     .     1_665                 no 
 H40     N14          2.8600                     .     1_655                 no 
 H40     O8           2.6600                     .     1_655                 no 
 H40     O3           2.1300                     .     1_565                 no 
 H40     C13          2.9400                     .     1_565                 no 
 H40     C55          2.8100                     .     1_655                 no 
 H41     O4           2.4900                     .     1_554                 no 
 H41     C28          2.8500                     .     1_554                 no 
 H41     H17          2.5700                     .     1_654                 no 
 H42     N4           2.7700                     .     1_565                 no 
 H42     C78          2.7700                     .     1_565                 no 
 H42     C16          3.0400                     .     1_565                 no 
 H42     C17          2.8000                     .     1_565                 no 
 H42     O11          1.8300                     .     1_565                 no 
 H43     H44          2.5900                     .       .                   no 
 H43     H45          2.5900                     .       .                   no 
 H43     H46          2.5900                     .       .                   no 
 H44     H43          2.5900                     .       .                   no 
 H45     H43          2.5900                     .       .                   no 
 H46     H43          2.5900                     .       .                   no 
 H48     O10          1.7400                     .     1_655                 no 
 H48     C74          2.5900                     .     1_655                 no 
 H50     H51          2.5900                     .       .                   no 
 H50     H52          2.5900                     .       .                   no 
 H50     H53          2.5900                     .       .                   no 
 H51     H2           2.4200                     .     1_455                 no 
 H51     H50          2.5900                     .       .                   no 
 H52     H50          2.5900                     .       .                   no 
 H53     O7           2.5900                     .     1_455                 no 
 H53     H50          2.5900                     .       .                   no 
 H54     O6           2.1300                     .     1_554                 no 
 H54     C36          2.9400                     .     1_554                 no 
 H55     O1           2.4900                     .       .                   no 
 H55     C5           2.8500                     .       .                   no 
 H55     H3           2.5700                     .     1_455                 no 
 H56     O8           1.8300                     .       .                   no 
 H56     N10          2.7700                     .     1_554                 no 
 H56     C39          3.0400                     .     1_554                 no 
 H56     C40          2.8000                     .     1_554                 no 
 H56     C55          2.7700                     .       .                   no 

loop_
_geom_hbond_atom_site_label_D
_geom_hbond_atom_site_label_H
_geom_hbond_atom_site_label_A
_geom_hbond_distance_DH
_geom_hbond_distance_HA
_geom_hbond_distance_DA
_geom_hbond_angle_DHA
_geom_hbond_site_symmetry_A
_geom_hbond_publ_flag
#
#D   H   A   D - H  H...A   D...A    D - H...A  symm(A)
#
N2      H6      O1          1.0100     1.7400     2.6895     156.00   1_655 yes 
N4      H12     O9          1.0100     2.1300     2.9446     137.00   1_545 yes 
N5      H13     O10         1.0100     2.4900     3.4211     154.00   1_556 yes 
N6      H14     O5          1.0100     1.8300     2.7383     149.00   1_545 yes 
N8      H20     O4          1.0100     1.7400     2.6895     156.00   1_455 yes 
N10     H26     O12         1.0100     2.1300     2.9446     137.00   1_556 yes 
N11     H27     O7          1.0100     2.4900     3.4211     154.00     .   yes 
N12     H28     O2          1.0100     1.8300     2.7383     149.00     .   yes 
N14     H34     O7          1.0100     1.7400     2.6895     156.00   1_455 yes 
N16     H40     O3          1.0100     2.1300     2.9446     137.00   1_565 yes 
N17     H41     O4          1.0100     2.4900     3.4211     154.00   1_554 yes 
N18     H42     O11         1.0100     1.8300     2.7383     149.00   1_565 yes 
N20     H48     O10         1.0100     1.7400     2.6895     156.00   1_655 yes 
N22     H54     O6          1.0100     2.1300     2.9446     137.00   1_554 yes 
N23     H55     O1          1.0100     2.4900     3.4211     154.00     .   yes 
N24     H56     O8          1.0100     1.8300     2.7383     149.00     .   yes 
C22     H11     O4          1.0800     2.5900     3.5917     154.00   1_445 yes 
C45     H25     O1          1.0800     2.5900     3.5917     154.00   1_655 yes 
C68     H39     O10         1.0800     2.5900     3.5917     154.00   1_665 yes 
C91     H53     O7          1.0800     2.5900     3.5917     154.00   1_455 yes 

# Loop Mechanism for Extra Tables(s)

#loop_
#_publ_manuscript_incl_extra_item
#'_geom_extra_tableA_col_1'
#'_geom_extra_tableA_col_2'
#'_geom_extra_tableA_col_3'
#'_geom_extra_table_head_A'
#'_geom_table_footnote_A'
#'_geom_extra_tableB_col_1'
#'_geom_extra_tableB_col_2'
#'_geom_extra_tableB_col_3'
#'_geom_extra_table_head_B'
#'_geom_table_footnote_B'


#
#loop_
#_geom_extra_tableA_col_1
#_geom_extra_tableA_col_2
#_geom_extra_tableA_col_3
# ? ? ?


#
#loop_
#_geom_extra_tableB_col_1
#_geom_extra_tableB_col_2
#_geom_extra_tableB_col_3
# ? ? ?


#
#_geom_table_footnote_A
#;
# ?
#;


#
#_geom_table_footnote_B
#;
# ?
#;


#
#_geom_table_footnote_A
#;
# ?
#;


#
#_geom_table_footnote_B
#;
# ?
#;


#===END
