
#######################################################################
#
#                 Cambridge Crystallographic Data Centre
#                                CCDC 
#
#######################################################################
#
# If this CIF has been generated from an entry in the Cambridge 
# Structural Database, then it will include bibliographic, chemical, 
# crystal, experimental, refinement or atomic coordinate data resulting 
# from the CCDC's data processing and validation procedures.
#
#######################################################################

data_ZIDYUG
_chemical_formula_moiety         '(C16 H16 Ag2 N8 2+)n,2n(F6 P1 1-)'
_chemical_name_systematic        
'catena-(bis(\m~2~-Pyrazine-N)-silver(i) hexafluorophosphate)'
_symmetry_cell_setting           triclinic
_symmetry_space_group_name_H-M   'P -1'
_symmetry_Int_Tables_number      2
_space_group_name_Hall           '-P 1'
loop_
_symmetry_equiv_pos_site_id
_symmetry_equiv_pos_as_xyz
1 x,y,z
2 -x,-y,-z
_cell_length_a                   7.286(1)
_cell_length_b                   9.109(2)
_cell_length_c                   10.984(2)
_cell_angle_alpha                102.00(2)
_cell_angle_beta                 90.93(1)
_cell_angle_gamma                111.20(1)
_cell_volume                     661.452
_exptl_crystal_colour            colorless
_cell_formula_units_Z            1
loop_
_atom_site_label
_atom_site_type_symbol
_atom_site_fract_x
_atom_site_fract_y
_atom_site_fract_z
Ag1 Ag 0.16542(3) 0.32321(3) 0.30033(2)
N1 N 0.4993(4) 0.3802(4) 0.3188(3)
C1 C 0.6137(5) 0.4241(4) 0.2290(3)
C2 C 0.8033(5) 0.4235(4) 0.2294(3)
N2 N 0.8821(4) 0.3802(4) 0.3196(3)
C3 C 0.7687(5) 0.3389(5) 0.4099(3)
C4 C 0.5788(5) 0.3380(5) 0.4098(3)
N3 N 0.0604(4) 0.1246(4) 0.1073(3)
C5 C -0.1284(6) 0.0464(5) 0.0646(4)
C6 C 0.1879(6) 0.0764(6) 0.0417(4)
N4 N 0.0689(5) 0.1247(4) 0.4380(3)
C7 C 0.0904(9) 0.1496(5) 0.5580(4)
C8 C -0.0261(10) -0.0297(6) 0.3782(4)
H1 H 0.5649(5) 0.4559(4) 0.1645(3)
H2 H 0.8781(5) 0.4543(4) 0.1648(3)
H3 H 0.1810(5) -0.3096(5) 0.5246(3)
H4 H 0.5044(5) 0.3072(5) 0.4746(3)
H5 H -0.2236(6) 0.0752(5) 0.1077(4)
H6 H 0.3222(6) 0.1273(6) 0.0686(4)
H7 H 0.1535(9) 0.2555(5) 0.6039(4)
H8 H -0.0487(10) -0.0560(6) 0.2914(4)
N5 N -0.1179(4) 0.3802(4) 0.3196(3)
C9 C -0.1879(6) -0.0764(6) -0.0417(4)
C10 C 0.1284(6) -0.0464(5) -0.0646(4)
C11 C 0.0261(10) 0.0297(6) 0.6218(4)
C12 C -0.0904(9) -0.1496(5) 0.4420(4)
N6 N -0.0604(4) -0.1246(4) -0.1073(3)
H9 H 0.2236(6) -0.0752(5) -0.1077(4)
H10 H -0.3222(6) -0.1273(6) -0.0686(4)
N7 N -0.0689(5) -0.1247(4) 0.5620(3)
H11 H -0.1535(9) -0.2555(5) 0.3961(4)
H12 H 0.0487(10) 0.0560(6) 0.7086(4)
Ag2 Ag -0.16542(3) -0.32321(3) -0.30033(2)
Ag3 Ag -0.16542(3) -0.32321(3) 0.69967(2)
N8 N -0.4993(4) -0.3802(4) 0.6812(3)
N9 N 0.1179(4) -0.3802(4) 0.6804(3)
N10 N -0.0604(4) -0.1246(4) 0.8927(3)
C13 C 0.1967(5) -0.4235(4) 0.7706(3)
C14 C 0.2313(5) -0.3389(5) 0.5901(3)
C15 C 0.3863(5) -0.4241(4) 0.7710(3)
H13 H 0.1219(5) -0.4543(4) 0.8352(3)
C16 C 0.4212(5) -0.3380(5) 0.5902(3)
N11 N 0.5007(4) -0.3802(4) 0.6812(3)
H14 H 0.4351(5) -0.4559(4) 0.8355(3)
H15 H 0.4956(5) -0.3072(5) 0.5254(3)
Ag4 Ag 0.83458(3) -0.32321(3) 0.69967(2)
Ag5 Ag 1.16542(3) 0.32321(3) 0.30033(2)
H16 H 0.8190(5) 0.3096(5) 0.4754(3)
loop_
_geom_bond_atom_site_label_1
_geom_bond_atom_site_label_2
_geom_bond_site_symmetry_1
_geom_bond_site_symmetry_2
Ag1 N1 1_555 1_555
N1 C1 1_555 1_555
C1 C2 1_555 1_555
C2 N2 1_555 1_555
N2 C3 1_555 1_555
C3 C4 1_555 1_555
C4 N1 1_555 1_555
N3 Ag1 1_555 1_555
C5 N3 1_555 1_555
C6 N3 1_555 1_555
N4 Ag1 1_555 1_555
C7 N4 1_555 1_555
C8 N4 1_555 1_555
H1 C1 1_555 1_555
H2 C2 1_555 1_555
H3 C14 1_555 1_555
H4 C4 1_555 1_555
H5 C5 1_555 1_555
H6 C6 1_555 1_555
H7 C7 1_555 1_555
H8 C8 1_555 1_555
N5 Ag1 1_555 1_555
C9 C5 1_555 1_555
C10 C6 1_555 1_555
C11 C7 1_555 1_555
C12 C8 1_555 1_555
N6 C9 1_555 1_555
H9 C10 1_555 1_555
H10 C9 1_555 1_555
N7 C11 1_555 1_555
H11 C12 1_555 1_555
H12 C11 1_555 1_555
Ag2 N6 1_555 1_555
Ag3 N7 1_555 1_555
N8 Ag3 1_555 1_555
N9 Ag3 1_555 1_555
N10 Ag3 1_555 1_555
C13 N9 1_555 1_555
C14 N9 1_555 1_555
C15 C13 1_555 1_555
H13 C13 1_555 1_555
C16 C14 1_555 1_555
N11 C15 1_555 1_555
H14 C15 1_555 1_555
H15 C16 1_555 1_555
Ag4 N11 1_555 1_555
Ag5 N2 1_555 1_555
H16 C3 1_555 1_555
C10 N6 1_555 1_555
C12 N7 1_555 1_555
C16 N11 1_555 1_555

#END
