data_ZnAlaPyr-Closed

_chemical_name_systematic                           
;
ZnAlaPyr-Closed
;
_chemical_name_common             ?
_chemical_formula_moiety          'C7 H7 N3 O3 Zn'
_chemical_formula_analytical      ?  
_chemical_formula_sum             'C7 H7 N3 O3 Zn'
_chemical_formula_weight          246.53
_chemical_melting_point           ?


#==============================================================================

# CHEMICAL DATA

_space_group_crystal_system 'trigonal'      
_cell_length_a              23.7801(3)
_cell_length_b              23.7801(3)
_cell_length_c              10.27577(8)
_cell_angle_alpha           90
_cell_angle_beta            90
_cell_angle_gamma           120
_cell_volume                5032.35(13)
_symmetry_space_group_name_H-M R3
_cell_formula_units_Z       18                  
_cell_measurement_temperature  195

loop_
	_symmetry_equiv_pos_as_xyz
	 'x, y, z '
	 '-y, x-y, z '
	 '-x+y, -x, z '
	 'x-1/3, y+1/3, z+1/3 '
	 '-y-1/3, x-y+1/3, z+1/3 '
	 '-x+y-1/3, -x+1/3, z+1/3 '
	 'x+1/3, y-1/3, z-1/3 '
	 '-y+1/3, x-y-1/3, z-1/3 '
	 '-x+y+1/3, -x-1/3, z-1/3 '
	
_exptl_crystal_density_diffrn     1.464
_exptl_crystal_density_meas        ?
_exptl_crystal_density_method     'not measured'

_pd_spec_size_equat               0.5      # parallel to 
                                           # scattering vector 
                                           # in transmission

_pd_spec_mounting                          
;
Packed in 0.5mm Quartz capillary tube and loaded into I11
gas cell
;

_pd_spec_mount_mode         'transmisson'   
_pd_spec_shape              'cylinder'			       
_pd_char_colour             'white'        
  

#=======================================================================

# EXPERIMENTAL DATA

_exptl_special_details
;
Recorded at Beamline I11, Diamond Light Source using wide angle (90 degree)
PSD detector comprising multiple Mythen-2 modules. Data was collected using the
I11 non-ambient enviromental cell set-up.
The capillary was unable to be spun but was rocked during collection
;

_pd_instr_location
;
Diamond Light Source, Harwell Science Park, Didcot
;

_diffrn_ambient_temperature   195                    
_diffrn_source                sychrotron              
_diffrn_detector              'Mythen'               
_diffrn_detector_type         'PSD'
_diffrn_measurement_device_type 'I11 Beamline, Diamond Light Source'
_pd_meas_scan_method          'cont'      
_diffrn_radiation_probe       x-ray
_diffrn_radiation_wavelength  0.825015

_pd_meas_special_details
; 
4 pairs of 2-second scans were collected. Each pair was related by a 0.25 degree
detector offset to account for gaps between detector modules.
;

       

# The following four items give details of the measured (not processed)
# powder pattern.  Angles are in degrees.

_pd_meas_number_of_points       22508                                     
_pd_meas_2theta_range_min       2.084                  
_pd_meas_2theta_range_max       92.112                  
_pd_meas_2theta_range_inc       0.004


_computing_data_collection        'GDA, Diamond Light Source'
_computing_cell_refinement        'TOPAS-6 Academic'
_computing_data_reduction         'TOPAS-6 Academic'
_computing_structure_solution     'TOPAS-6 Academic'
_computing_structure_refinement   'TOPAS-6 Academic'
_computing_molecular_graphics     'Mercury CSD'


#==============================================================================

# REFINEMENT DATA

_pd_proc_ls_prof_R_factor         2.216          
_pd_proc_ls_prof_wR_factor        3.013      
_pd_proc_ls_prof_wR_expected      0.300
_refine_ls_R_I_factor	           1.450

_refine_special_details
;
The structural solution was obtained using simulated annealing methods.
Rigid bodies of the framework ligands were obtained from DFT calcuations.
The rigid bodies were allowed to translate and rotate over 10000 iterations
to find the correct minimum.

The powder data was fit between 2.5 and 45 degrees because data above 40 degrees
no longer contained visable bragg reflections.
;
         
_refine_ls_number_parameters        72
_refine_ls_number_restraints        8
_refine_ls_number_constraints       ?
_refine_ls_goodness_of_fit_all      9.03      

_pd_proc_2theta_range_min         	2.5             
_pd_proc_2theta_range_max        	45             
_pd_proc_info_excluded_regions    	
;
Data above 45 no longer contained reflections and was not usfull in the refinement
;             

loop_
_atom_site_label
_atom_site_type_symbol
_atom_site_symmetry_multiplicity
_atom_site_fract_x
_atom_site_fract_y
_atom_site_fract_z
_atom_site_occupancy
_atom_site_B_iso_or_equiv
Zn1 Zn   9 0.6794(4) 0.9836(5) 0.8007(12) 1 2.47(6)
Zn2 Zn   9 0.6809(5) 0.6421(4) 0.6384(12) 1 2.47(6)
O1 O   9 0.5999(9) 0.9046(9) 0.778(2) 1 2.47(6)
C1 C   9 0.5580(10) 0.8958(10) 0.691(2) 1 2.47(6)
C2 C   9 0.4914(10) 0.8334(12) 0.704(3) 1 2.47(6)
O2 O   9 0.5660(14) 0.9342(12) 0.597(2) 1 2.47(6)
C3 C   9 0.4515(9) 0.8427(14) 0.810(4) 1 2.47(6)
H2 H   9 0.4666(14) 0.8236(14) 0.610(4) 1 2.47(6)
N1 N   9 0.5012(12) 0.7791(10) 0.736(3) 1 2.47(6)
H3C H   9 0.4457(10) 0.8848(16) 0.788(4) 1 2.47(6)
H3B H   9 0.4030(9) 0.7991(16) 0.816(5) 1 2.47(6)
H3A H   9 0.4755(12) 0.8505(13) 0.905(4) 1 2.47(6)
C4 C   9 0.5190(17) 0.7511(10) 0.641(3) 1 2.47(6)
H1 H   9 0.5141(12) 0.7771(9) 0.830(3) 1 2.47(6)
C5 C   9 0.550(2) 0.7145(10) 0.684(3) 1 2.47(6)
O3 O   9 0.512(2) 0.7586(13) 0.522(3) 1 2.47(6)
C7 C   9 0.5602(19) 0.7001(11) 0.811(3) 1 2.47(6)
C6 C   9 0.586(3) 0.6948(13) 0.605(3) 1 2.47(6)
H7 H   9 0.5426(19) 0.7076(11) 0.903(3) 1 2.47(6)
N3 N   9 0.599(2) 0.6739(14) 0.808(4) 1 2.47(6)
H6 H   9 0.592(3) 0.6984(15) 0.500(3) 1 2.47(6)
N2 N   9 0.615(3) 0.6707(15) 0.681(4) 1 2.47(6)
O4 O   9 0.6972(8) 0.5969(9) 0.780(2) 1 2.47(6)
C8 C   9 0.6676(9) 0.5625(11) 0.879(2) 1 2.47(6)
C9 C   9 0.6744(12) 0.5027(13) 0.914(3) 1 2.47(6)
O5 O   9 0.6323(10) 0.5728(15) 0.958(2) 1 2.47(6)
C10 C   9 0.7187(12) 0.4914(11) 0.823(4) 1 2.47(6)
H9 H   9 0.6957(14) 0.5131(18) 1.012(3) 1 2.47(6)
N4 N   9 0.6091(13) 0.4464(13) 0.930(4) 1 2.47(6)
H10A H   9 0.7676(11) 0.5344(12) 0.824(3) 1 2.47(6)
H10C H   9 0.7222(15) 0.4494(13) 0.858(5) 1 2.47(6)
H10B H   9 0.7000(12) 0.4818(10) 0.724(4) 1 2.47(6)
C11 C   9 0.5651(12) 0.4234(10) 0.831(5) 1 2.47(6)
H4 H   9 0.5924(15) 0.4375(18) 1.024(4) 1 2.47(6)
C12 C   9 0.4965(13) 0.3833(12) 0.868(6) 1 2.47(6)
O6 O   9 0.5809(11) 0.4376(10) 0.715(4) 1 2.47(6)
C13 C   9 0.4681(15) 0.3623(18) 0.992(6) 1 2.47(6)
C14 C   9 0.4438(12) 0.3664(14) 0.785(6) 1 2.47(6)
H13 H   9 0.4908(17) 0.366(2) 1.086(6) 1 2.47(6)
N5 N   9 0.4034(15) 0.3352(19) 0.981(7) 1 2.47(6)
H14 H   9 0.4444(11) 0.3748(16) 0.680(6) 1 2.47(6)
N6 N   9 0.3882(12) 0.3378(16) 0.853(7) 1 2.47(6)



#==============================================================================
    
# PXRD Profile


_pd_block_diffractogram_id      ZnAlaPyr-Closed-Profile

loop_
_pd_meas_2theta_scan
_pd_proc_intensity_total
_pd_calc_intensity_total
     2.50000 129446.00247 130528.65723
     2.50400 129466.00304 130622.47851
     2.50800 129486.24549 130652.75919
     2.51200 129506.72472 130713.97813
     2.51600 129527.43565 129735.67313
     2.52000 129548.37328 130176.38868
     2.52400 129569.53268 128941.74477
     2.52800 129590.90894 129623.24754
     2.53200 129612.49723 130482.09237
     2.53600 129634.29275 130883.71234
     2.54000 129656.29078 130797.23486
     2.54400 129678.48662 131946.01973
     2.54800 129700.87566 129438.55748
     2.55200 129723.45332 131599.43361
     2.55600 129746.21506 130924.17330
     2.56000 129769.15642 127562.04985
     2.56400 129792.27296 127214.52052
     2.56800 129815.56032 130546.70309
     2.57200 129839.01416 131236.57439
     2.57600 129862.63022 131925.89029
     2.58000 129886.40426 132315.42879
     2.58400 129910.33211 130487.86048
     2.58800 129934.40963 131510.11991
     2.59200 129958.63274 131392.45180
     2.59600 129982.99740 132323.21582
     2.60000 130007.49964 131165.53249
     2.60400 130032.13549 131239.91972
     2.60800 130056.90108 130990.42057
     2.61200 130081.79254 131490.57448
     2.61600 130106.80607 131214.66041
     2.62000 130131.93791 133101.44351
     2.62400 130157.18435 130698.03747
     2.62800 130182.54170 129552.96896
     2.63200 130208.00636 131930.69940
     2.63600 130233.57472 131947.33533
     2.64000 130259.24326 131499.05184
     2.64400 130285.00846 129663.01275
     2.64800 130310.86689 131863.93150
     2.65200 130336.81511 131228.14546
     2.65600 130362.84976 130001.86194
     2.66000 130388.96751 129681.52587
     2.66400 130415.16506 131276.46580
     2.66800 130441.43918 131106.23187
     2.67200 130467.78664 130452.26972
     2.67600 130494.20429 130706.80762
     2.68000 130520.68898 129724.57491
     2.68400 130547.23764 130959.52499
     2.68800 130573.84720 129495.02583
     2.69200 130600.51466 131111.17724
     2.69600 130627.23704 128955.24913
     2.70000 130654.01141 131245.52137
     2.70400 130680.83486 130844.16587
     2.70800 130707.70454 131338.88976
     2.71200 130734.61762 129771.04924
     2.71600 130761.57131 130767.48335
     2.72000 130788.56286 130238.50315
     2.72400 130815.58955 131921.32036
     2.72800 130842.64871 129433.88527
     2.73200 130869.73769 131108.66377
     2.73600 130896.85388 134581.32858
     2.74000 130923.99470 133280.61342
     2.74400 130951.15762 131112.22580
     2.74800 130978.34012 131419.71824
     2.75200 131005.53974 130881.25064
     2.75600 131032.75404 128675.35468
     2.76000 131059.98061 131727.05126
     2.76400 131087.21708 130280.80845
     2.76800 131114.46110 130974.19082
     2.77200 131141.71038 131953.92222
     2.77600 131168.96263 130554.60823
     2.78000 131196.21561 132512.41221
     2.78400 131223.46711 133835.79742
     2.78800 131250.71494 131139.52614
     2.79200 131277.95697 130753.71315
     2.79600 131305.19106 129432.41708
     2.80000 131332.41512 130743.16655
     2.80400 131359.62711 131985.94387
     2.80800 131386.82498 128223.75604
     2.81200 131414.00674 128542.78253
     2.81600 131441.17042 128862.77565
     2.82000 131468.31408 130371.80092
     2.82400 131495.43580 131573.66039
     2.82800 131522.53370 133407.95889
     2.83200 131549.60592 130591.77973
     2.83600 131576.65064 131550.14422
     2.84000 131603.66604 129922.93833
     2.84400 131630.65037 132726.32998
     2.84800 131657.60188 134378.67332
     2.85200 131684.51883 132927.79623
     2.85600 131711.39955 130383.51936
     2.86000 131738.24236 132536.99053
     2.86400 131765.04563 130926.94284
     2.86800 131791.80774 129509.91171
     2.87200 131818.52710 132996.82951
     2.87600 131845.20216 129484.88508
     2.88000 131871.83136 131508.91336
     2.88400 131898.41320 131493.78178
     2.88800 131924.94619 131495.93642
     2.89200 131951.42887 128999.85577
     2.89600 131977.85979 131034.54172
     2.90000 132004.23754 133830.06540
     2.90400 132030.56073 130244.59785
     2.90800 132056.82799 129288.31826
     2.91200 132083.03798 131457.85185
     2.91600 132109.18936 131513.05107
     2.92000 132135.28085 131972.56471
     2.92400 132161.31116 130090.94225
     2.92800 132187.27904 129059.25764
     2.93200 132213.18326 129209.50585
     2.93600 132239.02261 130235.53850
     2.94000 132264.79590 130147.64832
     2.94400 132290.50196 129256.39730
     2.94800 132316.13965 130823.96776
     2.95200 132341.70783 130663.01950
     2.95600 132367.20542 131104.42069
     2.96000 132392.63132 131663.30882
     2.96400 132417.98446 130501.64328
     2.96800 132443.26382 129952.65234
     2.97200 132468.46836 132383.79083
     2.97600 132493.59708 128895.60005
     2.98000 132518.64901 129609.28739
     2.98400 132543.62316 130371.11989
     2.98800 132568.51861 132304.98873
     2.99200 132593.33442 130277.27618
     2.99600 132618.06969 129785.69909
     3.00000 132642.72353 131831.80007
     3.00400 132667.29506 129562.53292
     3.00800 132691.78345 131193.95917
     3.01200 132716.18785 131213.69118
     3.01600 132740.50745 132663.02779
     3.02000 132764.74144 133005.62942
     3.02400 132788.88906 131277.10896
     3.02800 132812.94953 129217.42954
     3.03200 132836.92212 133008.62297
     3.03600 132860.80608 132653.33647
     3.04000 132884.60071 129409.29753
     3.04400 132908.30532 131621.15326
     3.04800 132931.91922 131072.66077
     3.05200 132955.44174 135517.54893
     3.05600 132978.87225 135427.90755
     3.06000 133002.21010 132398.74095
     3.06400 133025.45469 132242.72609
     3.06800 133048.60542 131006.58452
     3.07200 133071.66169 129833.94698
     3.07600 133094.62294 132288.99082
     3.08000 133117.48861 132021.56580
     3.08400 133140.25817 133943.54392
     3.08800 133162.93108 131450.85022
     3.09200 133185.50684 134162.53383
     3.09600 133207.98495 133578.89537
     3.10000 133230.36493 134660.59595
     3.10400 133252.64630 131603.14730
     3.10800 133274.82862 130737.99150
     3.11200 133296.91145 132565.31795
     3.11600 133318.89435 131285.15690
     3.12000 133340.77690 131216.51394
     3.12400 133362.55873 133755.45854
     3.12800 133384.23942 133979.60016
     3.13200 133405.81861 131596.24752
     3.13600 133427.29594 132045.48855
     3.14000 133448.67105 129792.50302
     3.14400 133469.94361 131211.53398
     3.14800 133491.11330 131974.87723
     3.15200 133512.17979 132586.04412
     3.15600 133533.14280 132960.76408
     3.16000 133554.00203 133425.06367
     3.16400 133574.75721 134050.13537
     3.16800 133595.40807 131853.64449
     3.17200 133615.95435 132735.41502
     3.17600 133636.39582 129532.16420
     3.18000 133656.73223 131642.09205
     3.18400 133676.96338 131536.45206
     3.18800 133697.08905 133426.66329
     3.19200 133717.10905 130331.89231
     3.19600 133737.02318 131911.58659
     3.20000 133756.83127 132707.23642
     3.20400 133776.53314 132517.27171
     3.20800 133796.12866 130685.46356
     3.21200 133815.61765 133507.64545
     3.21600 133835.00000 128982.64082
     3.22000 133854.27557 132850.19100
     3.22400 133873.44424 134495.67459
     3.22800 133892.50591 131019.95205
     3.23200 133911.46048 132652.16325
     3.23600 133930.30786 131033.86388
     3.24000 133949.04797 132699.96288
     3.24400 133967.68074 131474.09483
     3.24800 133986.20611 132364.03924
     3.25200 134004.62402 133305.79528
     3.25600 134022.93443 133204.57027
     3.26000 134041.13731 132850.31859
     3.26400 134059.23263 133395.52877
     3.26800 134077.22036 135423.50265
     3.27200 134095.16093 132928.29077
     3.27600 134116.02956 135721.38412
     3.28000 134142.72035 133765.22404
     3.28400 134177.18260 134076.04278
     3.28800 134223.41250 132504.72380
     3.29200 134290.97491 134862.63959
     3.29600 134413.59901 136402.25533
     3.30000 134595.59731 138679.17473
     3.30400 134617.59195 139469.42595
     3.30800 134639.20149 140099.37537
     3.31200 134660.79066 138493.93487
     3.31600 134682.36169 139796.56699
     3.32000 134703.91688 137771.86495
     3.32400 134725.45860 140790.00637
     3.32800 134746.98933 140316.27681
     3.33200 134768.51161 143578.03227
     3.33600 134790.02806 141404.82581
     3.34000 134811.54139 142845.29513
     3.34400 134833.05443 142251.39134
     3.34800 134854.57006 141718.43371
     3.35200 134876.09128 140422.05648
     3.35600 134897.62120 139283.87007
     3.36000 134919.16301 136649.46790
     3.36400 134940.72003 135110.45302
     3.36800 134962.29568 137130.39175
     3.37200 134983.89351 135296.42513
     3.37600 135005.51717 139141.56450
     3.38000 135027.17046 136971.80946
     3.38400 135048.85730 134231.24874
     3.38800 135070.58174 135364.80740
     3.39200 135092.34797 136520.29541
     3.39600 135114.16035 133119.36073
     3.40000 135136.02337 135808.53220
     3.40400 135157.94169 136590.22429
     3.40800 135179.92013 137298.58924
     3.41200 135201.96369 135409.29810
     3.41600 135224.07754 133472.11584
     3.42000 135246.26706 135361.87386
     3.42400 135268.53780 134196.95880
     3.42800 135290.89554 135448.06098
     3.43200 135313.34625 134214.38178
     3.43600 135335.89613 136131.67803
     3.44000 135358.55163 134268.57857
     3.44400 135381.31944 134849.26176
     3.44800 135404.20648 133129.66178
     3.45200 135427.21996 135570.38390
     3.45600 135450.36737 132007.45641
     3.46000 135473.65649 133533.04847
     3.46400 135497.09540 133750.64824
     3.46800 135520.69250 131536.52517
     3.47200 135544.45654 137238.65937
     3.47600 135568.39661 135202.90040
     3.48000 135592.52218 133761.79041
     3.48400 135616.84312 134878.69328
     3.48800 135641.36968 134733.40269
     3.49200 135666.11257 133994.11178
     3.49600 135691.08292 133657.14035
     3.50000 135716.29237 134952.88687
     3.50400 135741.75304 135494.83227
     3.50800 135767.47757 135659.15153
     3.51200 135793.47916 134431.78476
     3.51600 135819.77162 133301.40293
     3.52000 135846.36933 132382.52518
     3.52400 135873.28735 134307.18908
     3.52800 135900.54142 138620.66232
     3.53200 135928.14800 135553.46107
     3.53600 135956.12431 137624.42370
     3.54000 135984.48839 137106.95100
     3.54400 136013.25913 137322.45779
     3.54800 136042.45631 135160.62669
     3.55200 136072.10070 135167.71940
     3.55600 136102.21404 135534.04421
     3.56000 136132.81917 135352.56256
     3.56400 136163.94008 137257.56965
     3.56800 136195.60194 134708.37387
     3.57200 136227.83123 136645.85373
     3.57600 136260.65580 134545.36272
     3.58000 136294.10493 134741.51762
     3.58400 136328.20945 134989.67916
     3.58800 136363.00183 132689.78216
     3.59200 136398.51631 136665.19881
     3.59600 136434.78896 135454.85246
     3.60000 136471.85788 135310.23133
     3.60400 136509.76326 136306.64911
     3.60800 136548.54758 135637.29374
     3.61200 136588.25573 132964.06097
     3.61600 136628.93522 135759.38109
     3.62000 136670.63631 132896.93196
     3.62400 136713.41228 134671.23276
     3.62800 136757.31960 138655.11405
     3.63200 136802.41815 135671.71238
     3.63600 136848.77150 131629.66994
     3.64000 136896.44718 138084.60746
     3.64400 136945.51701 135827.04285
     3.64800 136996.05736 135714.35206
     3.65200 137048.14957 137782.54443
     3.65600 137101.88033 134909.67942
     3.66000 137157.34213 135787.11451
     3.66400 137214.63370 135339.47350
     3.66800 137273.86054 137215.80867
     3.67200 137335.13545 134346.63102
     3.67600 137398.57921 135102.62370
     3.68000 137464.32119 134378.48422
     3.68400 137532.50018 137286.59681
     3.68800 137603.26527 137465.50576
     3.69200 137676.77665 138944.34522
     3.69600 137753.20669 135959.82610
     3.70000 137832.74104 137721.84245
     3.70400 137915.57989 136633.90895
     3.70800 138001.93946 136221.49933
     3.71200 138092.05354 137086.04458
     3.71600 138186.17508 136861.79206
     3.72000 138284.57822 135000.04900
     3.72400 138387.56050 137785.72240
     3.72800 138495.44543 136651.60809
     3.73200 138608.58493 137773.24923
     3.73600 138727.36257 138938.50922
     3.74000 138852.19724 140246.57626
     3.74400 138983.54689 137449.64844
     3.74800 139121.91297 138431.31576
     3.75200 139267.84583 140513.04697
     3.75600 139421.95025 139370.51429
     3.76000 139584.89207 140520.35899
     3.76400 139757.40623 139013.64987
     3.76800 139940.30480 139430.58590
     3.77200 140134.48782 141004.13232
     3.77600 140340.95420 141290.75712
     3.78000 140560.81595 143327.93932
     3.78400 140795.31308 144126.98456
     3.78800 141045.83281 145092.82714
     3.79200 141313.93019 143693.46019
     3.79600 141601.35361 143902.51038
     3.80000 141910.07499 141791.73017
     3.80400 142242.32449 141898.38687
     3.80800 142600.63273 143019.61449
     3.81200 142987.88105 146232.83513
     3.81600 143407.36195 145924.90579
     3.82000 143862.85203 146326.01283
     3.82400 144358.70061 145456.93051
     3.82800 144899.93835 145539.31558
     3.83200 145492.41073 146032.26970
     3.83600 146142.94228 146656.99696
     3.84000 146859.54393 149545.91472
     3.84400 147651.67072 149759.19862
     3.84800 148530.55007 151129.34434
     3.85200 149509.60128 152369.15122
     3.85600 150604.97809 153758.92858
     3.86000 151836.27412 153917.63232
     3.86400 153227.45768 156697.22693
     3.86800 154808.11924 157200.21699
     3.87200 156615.16618 159238.05115
     3.87600 158695.15573 161453.19116
     3.88000 161107.56847 165535.06429
     3.88400 163929.49215 163418.01121
     3.88800 167262.47979 168022.33466
     3.89200 171242.86148 172587.35447
     3.89600 176057.73062 178668.15170
     3.90000 181970.67483 184134.19082
     3.90400 189365.13123 188529.95397
     3.90800 198822.17575 195475.35170
     3.91200 211273.26411 209325.07360
     3.91600 228328.60282 225867.54846
     3.92000 252981.81125 248781.37803
     3.92400 290752.82648 285764.93943
     3.92800 350062.77186 342445.67625
     3.93200 441339.47679 438502.83781
     3.93600 577342.54377 579885.30937
     3.94000 774039.53929 797203.84105
     3.94400 1043690.76315 1050233.02644
     3.94800 1363419.05548 1344582.43200
     3.95200 1642236.68224 1593593.22643
     3.95600 1804189.36191 1760629.31816
     3.96000 1872718.25877 1867331.64031
     3.96400 1881000.07281 1905742.85282
     3.96800 1840307.19608 1874972.46006
     3.97200 1748457.30747 1773334.34345
     3.97600 1595220.66219 1612012.03663
     3.98000 1366635.62837 1352551.45847
     3.98400 1063861.63752 1053212.69835
     3.98800 745508.10097 759334.44381
     3.99200 513523.58095 534427.06003
     3.99600 383816.86939 395694.05272
     4.00000 312187.24060 321196.25506
     4.00400 269050.84172 277356.60313
     4.00800 240702.62302 250925.41534
     4.01200 220865.71315 229623.57561
     4.01600 206355.73580 217308.87221
     4.02000 195379.07778 207536.82401
     4.02400 186850.11850 199267.95900
     4.02800 180076.69061 189158.39723
     4.03200 174598.76720 184674.19995
     4.03600 170099.92171 180866.78406
     4.04000 166356.11729 178959.43104
     4.04400 163204.77737 174958.08174
     4.04800 160525.39630 170548.49441
     4.05200 158226.98517 166815.74814
     4.05600 156239.71757 165339.47656
     4.06000 154509.23214 163778.04406
     4.06400 152992.65865 163166.55489
     4.06800 151655.79749 162459.35463
     4.07200 150471.08032 159819.26305
     4.07600 149416.07297 158193.86342
     4.08000 148472.36110 155329.85857
     4.08400 147624.70912 153205.10170
     4.08800 146860.42005 155288.86296
     4.09200 146168.84035 153290.65522
     4.09600 145540.97651 152292.12167
     4.10000 144969.19097 152592.99388
     4.10400 144446.96317 152943.19322
     4.10800 143968.69806 150037.94116
     4.11200 143529.57246 150241.90176
     4.11600 143125.40905 148729.26917
     4.12000 142752.57601 149971.49933
     4.12400 142407.90265 149915.25832
     4.12800 142088.61071 147483.56523
     4.13200 141792.25736 148454.53248
     4.13600 141516.68752 145695.18131
     4.14000 141259.99396 144260.54553
     4.14400 141020.48371 146370.56716
     4.14800 140796.64980 145594.69382
     4.15200 140587.14736 144769.80990
     4.15600 140390.77264 142892.50692
     4.16000 140206.44572 142690.63632
     4.16400 140033.19590 145815.20873
     4.16800 139870.14793 142427.00266
     4.17200 139716.51170 141328.73720
     4.17600 139571.57178 140886.47258
     4.18000 139434.67971 141771.87833
     4.18400 139305.24599 138372.03594
     4.18800 139182.73441 143011.20345
     4.19200 139066.65574 139721.64989
     4.19600 138956.56322 141735.14590
     4.20000 138852.04823 140868.37859
     4.20400 138752.73616 141624.09525
     4.20800 138658.28331 141359.20021
     4.21200 138568.37392 139790.77423
     4.21600 138482.71721 138287.10365
     4.22000 138401.04519 138419.46353
     4.22400 138323.11072 138507.03940
     4.22800 138248.68535 136589.41549
     4.23200 138177.55767 138565.12274
     4.23600 138109.53189 138173.69941
     4.24000 138044.42648 138471.68351
     4.24400 137982.07294 137172.05538
     4.24800 137922.31462 137212.02157
     4.25200 137865.00575 136048.96113
     4.25600 137810.01057 139415.41915
     4.26000 137757.20255 137072.54260
     4.26400 137706.46364 139251.96166
     4.26800 137657.68355 139920.79558
     4.27200 137610.75915 137384.91294
     4.27600 137565.59393 137114.63552
     4.28000 137522.09752 137054.19915
     4.28400 137480.18518 139367.35570
     4.28800 137439.77746 138893.53650
     4.29200 137400.79977 139743.54659
     4.29600 137363.18200 138192.86289
     4.30000 137326.85823 137318.33085
     4.30400 137291.76641 137734.85011
     4.30800 137257.84812 136051.27636
     4.31200 137225.04831 135288.39992
     4.31600 137193.31506 137449.63099
     4.32000 137162.59936 136986.87624
     4.32400 137132.85496 135741.60195
     4.32800 137104.03815 140050.99183
     4.33200 137076.10762 135945.48669
     4.33600 137049.02425 136029.19178
     4.34000 137022.75105 135607.37007
     4.34400 136997.25294 134312.05802
     4.34800 136972.49671 135094.13232
     4.35200 136948.45085 136301.28647
     4.35600 136925.08546 135572.37441
     4.36000 136902.37217 135236.15096
     4.36400 136880.28404 133939.67269
     4.36800 136858.79544 135242.59514
     4.37200 136837.88202 137907.07348
     4.37600 136817.52063 136311.91108
     4.38000 136797.68922 134063.65025
     4.38400 136778.36681 135813.37753
     4.38800 136759.53342 134216.15043
     4.39200 136741.16998 134616.09623
     4.39600 136723.25835 136699.25723
     4.40000 136705.78119 135551.93557
     4.40400 136688.72196 137163.73775
     4.40800 136672.06489 132428.77290
     4.41200 136655.79491 135795.28531
     4.41600 136639.89760 136280.95265
     4.42000 136624.35921 135064.69892
     4.42400 136609.16658 133770.55618
     4.42800 136594.30711 134884.94784
     4.43200 136579.76875 133904.59191
     4.43600 136565.53998 134444.45287
     4.44000 136551.60974 132986.31805
     4.44400 136537.96747 132616.88366
     4.44800 136524.60302 135165.99334
     4.45200 136511.50667 134960.74042
     4.45600 136498.66910 137188.38222
     4.46000 136486.08138 133186.44196
     4.46400 136473.73492 133770.08946
     4.46800 136461.62148 134701.12726
     4.47200 136449.73317 134621.87437
     4.47600 136438.06240 133590.67838
     4.48000 136426.60185 134101.97471
     4.48400 136415.34454 132370.72664
     4.48800 136404.28370 134010.78062
     4.49200 136393.41286 134570.72977
     4.49600 136382.72579 135633.21489
     4.50000 136372.21648 132427.45101
     4.50400 136361.87916 134586.57242
     4.50800 136351.70827 134716.37397
     4.51200 136341.69846 133924.31470
     4.51600 136331.84457 135722.21771
     4.52000 136322.14164 136554.90835
     4.52400 136312.58486 133884.25905
     4.52800 136303.16964 131864.05751
     4.53200 136293.89151 136283.58697
     4.53600 136284.74619 135903.32958
     4.54000 136275.72954 135353.44302
     4.54400 136266.83755 134126.46369
     4.54800 136258.06637 134501.23650
     4.55200 136249.41229 133330.41667
     4.55600 136240.87169 132054.71414
     4.56000 136232.44112 132446.33602
     4.56400 136224.11722 135103.00373
     4.56800 136215.89674 134227.01091
     4.57200 136207.77655 133398.84425
     4.57600 136199.75363 132788.45128
     4.58000 136191.82504 136581.99281
     4.58400 136183.98795 133608.82961
     4.58800 136176.23963 133680.63472
     4.59200 136168.57743 133807.32502
     4.59600 136160.99877 133052.28009
     4.60000 136153.50117 134357.65795
     4.60400 136146.08224 134487.36716
     4.60800 136138.73964 133552.85943
     4.61200 136131.41142 131060.84725
     4.61600 136121.15692 133329.01025
     4.62000 136105.18598 132744.54979
     4.62400 136081.70964 136144.61485
     4.62800 136046.96083 133141.27024
     4.63200 135991.76232 132611.29731
     4.63600 135883.28249 133789.77929
     4.64000 135880.58583 133546.72071
     4.64400 135715.70601 134449.02662
     4.64800 135713.21287 132937.67998
     4.65200 135710.70168 133516.80847
     4.65600 135708.17254 131957.63233
     4.66000 135705.62551 131492.29766
     4.66400 135703.06067 132939.48908
     4.66800 135700.47811 137836.85574
     4.67200 135697.87789 133338.34585
     4.67600 135695.26009 133737.12715
     4.68000 135692.62478 134214.97810
     4.68400 135689.97203 132968.66184
     4.68800 135687.30191 133250.93690
     4.69200 135684.61449 131032.98874
     4.69600 135681.90985 130639.06004
     4.70000 135679.18803 132699.64856
     4.70400 135676.44912 134174.28413
     4.70800 135673.69317 132417.44697
     4.71200 135670.92025 135087.76132
     4.71600 135668.13041 134741.03594
     4.72000 135665.32373 132680.13838
     4.72400 135662.50025 133388.14696
     4.72800 135659.66004 137134.49108
     4.73200 135656.80315 134630.73962
     4.73600 135653.92963 133934.25506
     4.74000 135651.03955 132859.55150
     4.74400 135648.13296 135808.15096
     4.74800 135645.20991 131148.44902
     4.75200 135642.27044 132613.95574
     4.75600 135639.31462 133475.52902
     4.76000 135636.34249 132234.09500
     4.76400 135633.35409 133329.21592
     4.76800 135630.34948 132688.54459
     4.77200 135627.32870 135216.68877
     4.77600 135624.29179 131638.45234
     4.78000 135621.23880 132415.77003
     4.78400 135618.16978 133457.71113
     4.78800 135615.08476 134865.26571
     4.79200 135611.98378 132855.09847
     4.79600 135608.86688 133212.76928
     4.80000 135605.73411 131627.92066
     4.80400 135602.58550 131609.24075
     4.80800 135599.42108 133431.64911
     4.81200 135596.24090 134694.77510
     4.81600 135593.04498 134081.61954
     4.82000 135589.83337 134409.19496
     4.82400 135586.60608 133237.46885
     4.82800 135583.36316 129790.97342
     4.83200 135580.10464 132038.79730
     4.83600 135576.83054 133224.50027
     4.84000 135573.54090 132133.23664
     4.84400 135570.23574 131057.35934
     4.84800 135566.91866 132386.25240
     4.85200 135563.61062 133122.78914
     4.85600 135560.34304 132754.96866
     4.86000 135557.15479 130371.31331
     4.86400 135554.16395 131946.20527
     4.86800 135551.51026 130218.08911
     4.87200 135548.68557 133377.66640
     4.87600 135545.32145 133978.50247
     4.88000 135541.94516 131323.06582
     4.88400 135538.55691 133631.20714
     4.88800 135535.15695 133539.38017
     4.89200 135531.74554 132137.16853
     4.89600 135528.32297 131493.98589
     4.90000 135524.88953 131915.11365
     4.90400 135521.44556 133482.82189
     4.90800 135517.99141 132128.00133
     4.91200 135514.52747 130526.49247
     4.91600 135511.05418 136188.37620
     4.92000 135507.57198 131079.13685
     4.92400 135504.08138 131734.40059
     4.92800 135500.58295 131859.77556
     4.93200 135497.07730 133275.91477
     4.93600 135493.56510 132913.64297
     4.94000 135490.04710 132824.64856
     4.94400 135486.52413 130805.42165
     4.94800 135482.99712 132378.76571
     4.95200 135479.46708 132124.45501
     4.95600 135475.93517 130134.63801
     4.96000 135472.40267 132688.66187
     4.96400 135468.87103 133242.97284
     4.96800 135465.34187 137011.22854
     4.97200 135461.81705 135442.45105
     4.97600 135458.29865 138964.55192
     4.98000 135454.78906 137932.72364
     4.98400 135451.29101 137201.52867
     4.98800 135447.80761 133687.51544
     4.99200 135444.34247 137666.34040
     4.99600 135440.89976 133514.24095
     5.00000 135437.48434 135135.90933
     5.00400 135434.10187 136845.22577
     5.00800 135430.75901 134950.84888
     5.01200 135427.46363 136347.77396
     5.01600 135424.22509 134164.68610
     5.02000 135421.05458 133904.44875
     5.02400 135417.96560 134060.88279
     5.02800 135414.97455 135603.89244
     5.03200 135412.10152 136593.93504
     5.03600 135409.37136 134867.40049
     5.04000 135406.81513 134839.46299
     5.04400 135404.47208 135957.97923
     5.04800 135402.39248 133133.15628
     5.05200 135400.64165 135192.14002
     5.05600 135399.30589 134894.78621
     5.06000 135398.50140 136294.99201
     5.06400 135398.38824 134891.99846
     5.06800 135399.19281 135665.83546
     5.07200 135401.24603 135331.49361
     5.07600 135405.05200 135893.82508
     5.08000 135411.42172 136875.93903
     5.08400 135421.76538 136283.73252
     5.08800 135438.86103 136529.67785
     5.09200 135470.21316 133611.06709
     5.09600 135538.88354 134292.40309
     5.10000 135694.47605 134640.22492
     5.10400 136008.60386 134844.46965
     5.10800 136591.70013 133693.49042
     5.11200 137592.81376 134718.77583
     5.11600 138867.30369 136724.37158
     5.12000 139722.20591 135180.02183
     5.12400 139937.64774 140157.29127
     5.12800 139996.11536 140734.50426
     5.13200 139987.74445 138842.77316
     5.13600 139898.36712 139954.82744
     5.14000 139674.59304 138477.68252
     5.14400 139234.14840 136819.82348
     5.14800 138429.29741 136768.36022
     5.15200 137185.83493 136231.90335
     5.15600 136056.56669 136149.95580
     5.16000 135595.88803 134163.57551
     5.16400 135459.75379 135967.00465
     5.16800 135393.68225 133462.65362
     5.17200 135353.64430 133318.39111
     5.17600 135326.18818 133855.13339
     5.18000 135305.75907 135142.57455
     5.18400 135289.63596 131972.55119
     5.18800 135276.32827 135005.64926
     5.19200 135264.95197 131913.23536
     5.19600 135254.95063 133588.77103
     5.20000 135245.95737 135369.95580
     5.20400 135237.72106 131809.25705
     5.20800 135230.06449 132816.21379
     5.21200 135222.85929 131981.52796
     5.21600 135216.01043 136666.74627
     5.22000 135209.44618 137256.03986
     5.22400 135203.11154 136628.05085
     5.22800 135196.96367 136438.22018
     5.23200 135190.96877 138003.39639
     5.23600 135185.09988 135702.04499
     5.24000 135179.33526 136056.60943
     5.24400 135173.65720 138130.94942
     5.24800 135168.05114 134007.51144
     5.25200 135162.50505 137452.59638
     5.25600 135157.00889 137300.33067
     5.26000 135151.55421 139674.76831
     5.26400 135146.13389 137441.96619
     5.26800 135140.74187 135355.65155
     5.27200 135135.37296 135695.92306
     5.27600 135130.02272 137089.59345
     5.28000 135124.68730 136983.40590
     5.28400 135119.36337 136392.13179
     5.28800 135114.04803 134959.90495
     5.29200 135108.73875 136779.24550
     5.29600 135103.43329 135675.78328
     5.30000 135098.12968 136331.00238
     5.30400 135092.82620 137758.72817
     5.30800 135087.52131 136490.08774
     5.31200 135082.21363 134962.58172
     5.31600 135076.90194 135479.11289
     5.32000 135071.58514 136111.74483
     5.32400 135066.26225 136727.77609
     5.32800 135060.93239 136820.60676
     5.33200 135055.59476 136558.28275
     5.33600 135050.24863 135717.80128
     5.34000 135044.89335 137311.98695
     5.34400 135039.52832 137027.46139
     5.34800 135034.15299 133223.42572
     5.35200 135028.76688 135554.50613
     5.35600 135023.36952 134708.68051
     5.36000 135017.96050 135917.00918
     5.36400 135012.53943 136373.41427
     5.36800 135007.10596 135684.30388
     5.37200 135001.65977 135311.29008
     5.37600 134996.20065 135776.83407
     5.38000 134990.72456 136360.94752
     5.38400 134985.21143 135729.15522
     5.38800 134979.63191 133368.17153
     5.39200 134973.95130 134379.89718
     5.39600 134968.06030 135676.27476
     5.40000 134962.22690 136506.81179
     5.40400 134955.78942 135595.01133
     5.40800 134950.26955 135805.96579
     5.41200 134944.73249 136888.73324
     5.41600 134939.17821 135231.05458
     5.42000 134933.60670 137086.84432
     5.42400 134928.01792 134645.08869
     5.42800 134922.41184 136086.88891
     5.43200 134916.78844 134701.78813
     5.43600 134911.14769 134833.28852
     5.44000 134905.48957 137013.76385
     5.44400 134899.81404 133995.78096
     5.44800 134894.12108 134752.43311
     5.45200 134888.41066 133896.39375
     5.45600 134882.68276 135110.64305
     5.46000 134876.93735 135273.75501
     5.46400 134871.17440 135625.47092
     5.46800 134865.39389 134752.07365
     5.47200 134859.59579 135504.37139
     5.47600 134853.78007 134628.23775
     5.48000 134847.94671 136273.80926
     5.48400 134842.09569 134875.27417
     5.48800 134836.22697 136022.79595
     5.49200 134830.34054 134945.35586
     5.49600 134824.43636 134981.78727
     5.50000 134818.51442 133473.04582
     5.50400 134812.57468 135582.37310
     5.50800 134806.61712 137574.55823
     5.51200 134800.64172 135252.62763
     5.51600 134794.64845 136189.70839
     5.52000 134788.63730 136223.01295
     5.52400 134782.60822 135521.27548
     5.52800 134776.56121 135049.72171
     5.53200 134770.49624 134356.40220
     5.53600 134764.41328 135077.55211
     5.54000 134758.31231 134583.97923
     5.54400 134752.19331 135140.97489
     5.54800 134746.05625 135285.39816
     5.55200 134739.90112 132426.79858
     5.55600 134733.72788 134172.80306
     5.56000 134727.53653 133994.40840
     5.56400 134721.32703 135214.68602
     5.56800 134715.09936 134962.22928
     5.57200 134708.85350 135523.92600
     5.57600 134702.58944 137145.30646
     5.58000 134696.30715 134062.39766
     5.58400 134690.00661 135491.13795
     5.58800 134683.68780 134700.77625
     5.59200 134677.35069 136780.97843
     5.59600 134670.99528 132341.40133
     5.60000 134664.62153 133392.56992
     5.60400 134658.22944 134319.20857
     5.60800 134651.81897 137653.06304
     5.61200 134645.39012 137726.94035
     5.61600 134638.94286 135185.83093
     5.62000 134632.47718 138683.61518
     5.62400 134625.99305 135389.46864
     5.62800 134619.49047 133003.22237
     5.63200 134612.96940 134561.65619
     5.63600 134606.42984 135591.53057
     5.64000 134599.87176 133166.85220
     5.64400 134593.29516 135826.78235
     5.64800 134586.70001 135732.28229
     5.65200 134580.08630 134202.90297
     5.65600 134573.45402 134277.55122
     5.66000 134566.80314 136648.75233
     5.66400 134560.13365 134313.72798
     5.66800 134553.44554 135265.00506
     5.67200 134546.73879 134426.01864
     5.67600 134540.01340 135883.66092
     5.68000 134533.26934 133166.37904
     5.68400 134526.50660 134956.30546
     5.68800 134519.72517 135738.71602
     5.69200 134512.92503 134284.60625
     5.69600 134506.10618 136012.69188
     5.70000 134499.26860 133395.56488
     5.70400 134492.41228 135710.90697
     5.70800 134485.53721 137189.85882
     5.71200 134478.64338 137283.81703
     5.71600 134471.73077 135120.56458
     5.72000 134465.03919 135520.83147
     5.72400 134461.25553 134409.28522
     5.72800 134465.52299 134979.93023
     5.73200 134489.64978 132944.27890
     5.73600 134544.16027 135498.43582
     5.74000 134569.88707 133411.07713
     5.74400 134563.83163 134908.97044
     5.74800 134557.76785 136683.65033
     5.75200 134551.69588 135023.76877
     5.75600 134545.61587 135581.80883
     5.76000 134539.52795 135886.67190
     5.76400 134533.43229 135722.77357
     5.76800 134527.32903 135771.45166
     5.77200 134521.21834 136019.51163
     5.77600 134515.10038 136909.97653
     5.78000 134508.97531 139542.40106
     5.78400 134502.84329 140106.14402
     5.78800 134496.70451 141038.77337
     5.79200 134490.55913 140553.31038
     5.79600 134484.40734 143991.93129
     5.80000 134478.24932 142471.19560
     5.80400 134472.08525 139406.89714
     5.80800 134465.91533 138322.62903
     5.81200 134459.73975 136554.34201
     5.81600 134453.55870 138045.57283
     5.82000 134447.37240 136842.92880
     5.82400 134441.18105 138079.31902
     5.82800 134434.98486 138120.39121
     5.83200 134428.78404 138995.46853
     5.83600 134422.57883 135462.44438
     5.84000 134416.36943 135857.40879
     5.84400 134410.15609 134042.98626
     5.84800 134403.93904 133271.81100
     5.85200 134397.71851 134901.80571
     5.85600 134391.49476 133945.73981
     5.86000 134385.26803 137497.01640
     5.86400 134379.03858 133094.57169
     5.86800 134372.80667 135279.88835
     5.87200 134366.57256 136628.55438
     5.87600 134360.33865 133500.18700
     5.88000 134354.11731 134360.62679
     5.88400 134347.92948 135900.38800
     5.88800 134341.82312 134245.79017
     5.89200 134335.84711 135274.18706
     5.89600 134329.77417 134602.52166
     5.90000 134323.54131 133484.18609
     5.90400 134317.30878 133746.25915
     5.90800 134311.07690 135863.98297
     5.91200 134304.84601 133324.47850
     5.91600 134298.61646 133166.80474
     5.92000 134292.38859 133038.32341
     5.92400 134286.16276 133375.26379
     5.92800 134279.93933 134252.61305
     5.93200 134273.71867 134972.84417
     5.93600 134267.50117 136907.56969
     5.94000 134261.28722 135190.75479
     5.94400 134255.07720 137454.65651
     5.94800 134248.87154 133933.17134
     5.95200 134242.67064 135229.68329
     5.95600 134236.47493 134991.62053
     5.96000 134230.28485 136027.53205
     5.96400 134224.10084 134855.57116
     5.96800 134217.92334 134761.75601
     5.97200 134211.75284 133421.70628
     5.97600 134205.58980 136194.96177
     5.98000 134199.43471 133747.68120
     5.98400 134193.28807 135250.55594
     5.98800 134187.15038 134362.21623
     5.99200 134181.02217 131556.96042
     5.99600 134174.90397 133837.38253
     6.00000 134168.79632 135255.46813
     6.00400 134162.69978 133539.71591
     6.00800 134156.61493 134289.14530
     6.01200 134150.54234 134069.41556
     6.01600 134144.48261 132629.15131
     6.02000 134138.43636 133801.87240
     6.02400 134132.40422 132456.07978
     6.02800 134126.38682 135413.57767
     6.03200 134120.38482 134942.96980
     6.03600 134114.39889 135193.24640
     6.04000 134108.42973 135161.08444
     6.04400 134102.47805 134652.09723
     6.04800 134096.54455 133701.30002
     6.05200 134090.63000 132969.14811
     6.05600 134084.73514 132934.41856
     6.06000 134078.86075 133237.37754
     6.06400 134073.00764 134028.18835
     6.06800 134067.17662 132485.34310
     6.07200 134061.36853 134506.73448
     6.07600 134055.58424 135678.28964
     6.08000 134049.82462 138563.70805
     6.08400 134044.09057 132901.59364
     6.08800 134038.38304 134272.87373
     6.09200 134032.70296 133309.77311
     6.09600 134027.05132 131999.15450
     6.10000 134021.42913 132400.97687
     6.10400 134015.83741 135491.85529
     6.10800 134010.27721 132322.20538
     6.11200 134004.74963 133534.41481
     6.11600 133999.25579 132933.78114
     6.12000 133993.79681 135481.63932
     6.12400 133988.37389 132848.29695
     6.12800 133982.98824 134553.01279
     6.13200 133977.64109 137274.27941
     6.13600 133972.33372 132605.15827
     6.14000 133967.06745 133997.25449
     6.14400 133961.84362 133496.06740
     6.14800 133956.66363 133405.26232
     6.15200 133951.52891 132570.32245
     6.15600 133946.44093 134400.94999
     6.16000 133941.40119 133686.60034
     6.16400 133936.41127 134648.57532
     6.16800 133931.47276 132929.55887
     6.17200 133926.58732 132281.01812
     6.17600 133921.75665 131834.84990
     6.18000 133916.98251 132946.80923
     6.18400 133912.26670 133997.82834
     6.18800 133907.61110 135142.55195
     6.19200 133903.01762 135014.47414
     6.19600 133898.48825 134427.66851
     6.20000 133894.02504 135215.82680
     6.20400 133889.63010 134871.75175
     6.20800 133885.30563 134284.13243
     6.21200 133881.05387 133567.08964
     6.21600 133876.87717 133402.58176
     6.22000 133872.77792 131880.77325
     6.22400 133868.75863 134987.88810
     6.22800 133864.82188 136443.96871
     6.23200 133860.97034 135724.84093
     6.23600 133857.20678 135462.72101
     6.24000 133853.53407 132116.90796
     6.24400 133849.95519 133180.43664
     6.24800 133846.47322 134515.31362
     6.25200 133843.09136 133480.27634
     6.25600 133839.81296 131232.49499
     6.26000 133836.64146 133396.54570
     6.26400 133833.58047 132346.26246
     6.26800 133830.63373 133890.97659
     6.27200 133827.80515 132725.20034
     6.27600 133825.09880 134627.45191
     6.28000 133822.51894 133238.45267
     6.28400 133820.07000 133767.32253
     6.28800 133817.75663 132730.30216
     6.29200 133815.58369 133613.85638
     6.29600 133813.55630 132828.39295
     6.30000 133811.67981 133261.07372
     6.30400 133809.95987 132322.29473
     6.30800 133808.40240 133546.92205
     6.31200 133807.01369 135166.73342
     6.31600 133805.80036 134189.48309
     6.32000 133804.76945 135066.17766
     6.32400 133803.92841 134813.76243
     6.32800 133803.28522 137506.11257
     6.33200 133802.84836 132890.48425
     6.33600 133802.62694 133563.43033
     6.34000 133802.63075 135022.62856
     6.34400 133802.87035 135165.42033
     6.34800 133803.35720 132895.79992
     6.35200 133804.10375 134304.90328
     6.35600 133805.12366 132996.71837
     6.36000 133806.43193 132019.85107
     6.36400 133808.04514 134930.23474
     6.36800 133809.98178 135219.66771
     6.37200 133812.26258 134472.63159
     6.37600 133814.91097 133792.78038
     6.38000 133817.95366 135996.32005
     6.38400 133821.42137 133894.04573
     6.38800 133825.34978 134562.69744
     6.39200 133829.78081 132966.98954
     6.39600 133834.76425 134386.23227
     6.40000 133840.36004 134453.71019
     6.40400 133846.64128 133533.44652
     6.40800 133853.69855 132271.71996
     6.41200 133861.64589 135309.07559
     6.41600 133870.62958 136546.93125
     6.42000 133880.84098 132792.12986
     6.42400 133892.53623 132648.98195
     6.42800 133906.06708 133727.48005
     6.43200 133921.93102 134966.53517
     6.43600 133940.85667 134778.52377
     6.44000 133963.95698 134194.89689
     6.44400 133993.02486 133618.91543
     6.44800 134031.16486 134323.83316
     6.45200 134084.29655 135572.32511
     6.45600 134164.70530 135036.31584
     6.46000 134297.11053 134343.10709
     6.46400 134522.52771 134957.57497
     6.46800 134889.77040 133781.44958
     6.47200 135411.38166 134539.84708
     6.47600 135977.55922 135934.92873
     6.48000 136401.14615 135686.00110
     6.48400 136627.40370 134908.57822
     6.48800 136728.69789 132359.34190
     6.49200 136756.90009 134383.30275
     6.49600 136720.41343 135723.20113
     6.50000 136597.04712 134670.80544
     6.50400 136344.47744 132127.44780
     6.50800 135926.65722 133905.60598
     6.51200 135387.94042 134232.49570
     6.51600 134903.96050 134010.60730
     6.52000 134608.47189 134719.81442
     6.52400 134466.39960 133884.50700
     6.52800 134399.90365 134738.09950
     6.53200 134369.40146 134502.37452
     6.53600 134358.33379 134298.66839
     6.54000 134359.19904 134535.19616
     6.54400 134368.13353 134600.97942
     6.54800 134382.96025 134112.99482
     6.55200 134402.38076 135203.96482
     6.55600 134425.59112 133771.16843
     6.56000 134452.08307 135225.69243
     6.56400 134481.53435 135164.15645
     6.56800 134513.74517 135230.17991
     6.57200 134548.59977 136102.76923
     6.57600 134586.04254 136982.31966
     6.58000 134626.06258 135280.23190
     6.58400 134668.68357 136034.88710
     6.58800 134713.95710 135527.90438
     6.59200 134761.95836 134747.20160
     6.59600 134812.78323 135378.54819
     6.60000 134866.54636 136065.89743
     6.60400 134923.40682 134930.47739
     6.60800 134984.07168 134039.60085
     6.61200 135049.96475 135553.39466
     6.61600 135123.61905 134733.18403
     6.62000 135204.88800 136252.97468
     6.62400 135279.84308 135572.29639
     6.62800 135359.04354 135545.41643
     6.63200 135442.75566 134818.42987
     6.63600 135531.26988 136796.28637
     6.64000 135627.05151 136199.42149
     6.64400 135739.35000 137773.92858
     6.64800 135886.98517 138500.59817
     6.65200 136084.03489 138040.58415
     6.65600 136232.78821 135494.90761
     6.66000 136358.97444 135503.87225
     6.66400 136492.91072 138631.11256
     6.66800 136635.19136 138357.56433
     6.67200 136786.46983 139950.64109
     6.67600 136947.46570 139568.95555
     6.68000 137118.97298 141813.27916
     6.68400 137301.86952 139909.28488
     6.68800 137497.12761 139512.61588
     6.69200 137705.82638 139435.22646
     6.69600 137929.16622 140227.94176
     6.70000 138168.48551 140146.95059
     6.70400 138425.27997 140895.90503
     6.70800 138701.22569 141608.36764
     6.71200 138998.20574 141101.53855
     6.71600 139318.34137 141331.65925
     6.72000 139664.02976 143867.29207
     6.72400 140037.98785 144402.57301
     6.72800 140443.30520 144132.81669
     6.73200 140883.50757 143750.65162
     6.73600 141362.63278 144234.38123
     6.74000 141885.32332 142269.96635
     6.74400 142456.93869 143175.28001
     6.74800 143083.69293 144911.42080
     6.75200 143772.82441 146645.37452
     6.75600 144532.80648 146159.77443
     6.76000 145373.61025 145355.20999
     6.76400 146307.03609 147888.70803
     6.76800 147347.13433 147362.12128
     6.77200 148510.74276 148933.59413
     6.77600 149818.18233 150652.53859
     6.78000 151294.16530 153479.70344
     6.78400 152968.99373 154104.06846
     6.78800 154880.15946 158048.84885
     6.79200 157074.50908 159043.10313
     6.79600 159611.21548 159674.12412
     6.80000 162565.91715 163115.73874
     6.80400 166036.58656 165616.39682
     6.80800 170152.01509 170051.90081
     6.81200 175084.40734 172896.66819
     6.81600 181069.04944 178993.55223
     6.82000 188435.04517 186474.85017
     6.82400 197656.62136 196998.72693
     6.82800 209437.54589 208373.72145
     6.83200 224853.08163 224263.05751
     6.83600 245636.66275 246628.15848
     6.84000 274518.39917 273626.40550
     6.84400 315638.61068 319738.45341
     6.84800 374585.06134 384673.36309
     6.85200 457135.17068 479448.85276
     6.85600 565591.36316 587091.70001
     6.86000 693031.42418 710653.82859
     6.86400 820717.83176 827870.45628
     6.86800 926626.69561 938123.42523
     6.87200 998767.20229 1007889.95364
     6.87600 1036859.87499 1043643.96045
     6.88000 1044325.82612 1040308.47744
     6.88400 1022466.15796 1006944.36080
     6.88800 969632.83291 958859.78014
     6.89200 883928.26906 858166.00800
     6.89600 768734.28857 733730.34657
     6.90000 638203.54954 608081.78779
     6.90400 514600.99905 485531.76433
     6.90800 415069.82777 386988.72194
     6.91200 343112.72481 318168.39616
     6.91600 293324.34350 270262.96349
     6.92000 258863.00348 242244.99909
     6.92400 234461.08901 221898.12103
     6.92800 216630.94623 210132.07038
     6.93200 203184.82738 197196.04745
     6.93600 192763.12389 186377.27433
     6.94000 184503.08944 177729.67475
     6.94400 177836.34225 176207.41236
     6.94800 172373.34514 167980.11570
     6.95200 167838.13746 166623.43215
     6.95600 164030.10352 162436.96570
     6.96000 160800.34973 159168.95054
     6.96400 158036.41908 154610.18129
     6.96800 155652.05729 155949.92056
     6.97200 153580.18977 154925.52960
     6.97600 151768.00572 152878.54759
     6.98000 150173.45436 151521.32373
     6.98400 148762.70753 150537.08611
     6.98800 147508.29565 147646.30978
     6.99200 146387.72087 144725.23307
     6.99600 145382.41104 143383.71421
     7.00000 144476.92248 144467.74133
     7.00400 143658.32583 150436.95708
     7.00800 142915.72916 139077.63944
     7.01200 142239.90333 140123.29120
     7.01600 141622.98504 140202.20267
     7.02000 141058.24070 137360.53479
     7.02400 140539.87665 137064.26987
     7.02800 140062.88549 140962.33644
     7.03200 139622.92106 137237.97173
     7.03600 139216.19639 137700.86933
     7.04000 138839.39907 140267.21551
     7.04400 138489.62158 136949.69572
     7.04800 138164.30336 135246.64000
     7.05200 137861.18181 134729.51467
     7.05600 137578.25201 136599.55248
     7.06000 137313.73202 134390.08859
     7.06400 137066.03366 132523.57013
     7.06800 136833.73809 135073.45280
     7.07200 136615.57436 136724.20800
     7.07600 136410.40126 133226.82400
     7.08000 136217.18968 136002.65173
     7.08400 136035.00162 134309.29442
     7.08800 135862.97998 136604.66489
     7.09200 135700.32074 137685.84293
     7.09600 135546.45974 136753.69709
     7.10000 135400.49260 135895.40587
     7.10400 135262.41744 135852.03352
     7.10800 135131.38421 135735.07667
     7.11200 135006.91896 132051.39837
     7.11600 134888.58799 134671.26853
     7.12000 134775.99405 138582.20587
     7.12400 134668.77260 135794.66296
     7.12800 134566.58880 135061.10693
     7.13200 134469.13461 136346.91058
     7.13600 134376.12632 134494.93309
     7.14000 134287.30234 134727.99947
     7.14400 134202.42115 137248.59733
     7.14800 134121.25963 139260.21488
     7.15200 134043.61132 137379.03040
     7.15600 133969.28510 134104.15836
     7.16000 133898.10391 133426.74667
     7.16400 133829.90341 134553.32925
     7.16800 133764.53115 134816.86217
     7.17200 133701.84553 138771.02880
     7.17600 133641.71489 131429.54625
     7.18000 133584.01679 136488.90322
     7.18400 133528.63737 132318.88000
     7.18800 133475.47060 135845.16022
     7.19200 133424.41773 134994.08798
     7.19600 133375.38675 138298.23514
     7.20000 133328.29205 137285.77873
     7.20400 133283.05381 135297.55159
     7.20800 133239.59766 135001.15200
     7.21200 133197.85427 134381.68488
     7.21600 133157.75916 133071.46041
     7.22000 133119.25232 133268.90803
     7.22400 133082.27789 134378.18449
     7.22800 133046.78396 136094.09064
     7.23200 133012.72230 134181.26740
     7.23600 132980.04821 141563.32925
     7.24000 132948.72033 131734.31298
     7.24400 132918.70047 139622.14929
     7.24800 132889.95341 134413.70088
     7.25200 132862.44677 133723.31343
     7.25600 132836.15093 134217.53719
     7.26000 132811.03886 134131.10744
     7.26400 132787.08608 135020.77953
     7.26800 132764.27055 135228.52466
     7.27200 132742.57264 135202.33431
     7.27600 132721.97498 132424.03678
     7.28000 132702.46245 134132.64143
     7.28400 132684.02215 134314.09278
     7.28800 132666.64336 133298.34817
     7.29200 132650.31751 135805.25373
     7.29600 132635.03817 132237.38630
     7.30000 132620.80107 136361.82991
     7.30400 132607.60410 129924.80245
     7.30800 132595.44733 134682.77399
     7.31200 132584.33303 131142.56358
     7.31600 132574.26575 135040.26766
     7.32000 132565.25233 134585.99840
     7.32400 132557.30199 133916.20954
     7.32800 132550.42642 134255.01173
     7.33200 132544.63988 135496.68248
     7.33600 132539.95932 133582.73507
     7.34000 132536.40450 130595.55000
     7.34400 132533.99813 134683.61431
     7.34800 132532.76610 133049.60153
     7.35200 132532.73763 133742.28686
     7.35600 132533.94554 134032.94661
     7.36000 132536.42643 133608.12593
     7.36400 132540.22108 132965.40019
     7.36800 132545.37467 131572.30344
     7.37200 132551.93722 133505.79499
     7.37600 132559.96399 134139.64355
     7.38000 132569.51591 131518.99495
     7.38400 132580.66022 131949.29740
     7.38800 132593.47093 133866.41943
     7.39200 132608.02967 134424.31258
     7.39600 132624.42627 132845.06108
     7.40000 132642.75986 132680.49517
     7.40400 132663.13969 134961.81540
     7.40800 132685.68641 133912.21541
     7.41200 132710.53334 132474.13780
     7.41600 132737.82792 131631.94970
     7.42000 132767.73356 133932.04119
     7.42400 132800.43160 133101.65468
     7.42800 132836.12355 133293.32806
     7.43200 132875.03391 132897.00098
     7.43600 132917.41316 133986.03399
     7.44000 132963.54150 133098.86837
     7.44400 133013.73308 134283.76885
     7.44800 133068.34104 134400.87857
     7.45200 133127.76340 132512.32341
     7.45600 133192.45016 132934.11553
     7.46000 133262.91168 131886.29263
     7.46400 133339.72857 132952.41245
     7.46800 133423.56387 133659.13949
     7.47200 133515.17750 132970.54682
     7.47600 133615.44394 134127.31843
     7.48000 133725.37379 133591.55406
     7.48400 133846.14029 136209.22503
     7.48800 133979.11227 135837.83237
     7.49200 134125.89482 135807.45306
     7.49600 134288.38073 136270.87852
     7.50000 134468.81540 133083.92954
     7.50400 134669.87980 134674.51576
     7.50800 134894.79704 135471.02076
     7.51200 135147.47161 136504.26478
     7.51600 135432.67164 136496.44360
     7.52000 135756.27236 137256.34201
     7.52400 136125.58364 135818.72592
     7.52800 136549.79798 135277.43393
     7.53200 137040.61276 137261.12611
     7.53600 137613.10920 136210.95020
     7.54000 138287.01751 139241.60001
     7.54400 139088.57858 140140.86301
     7.54800 140053.34881 140354.35291
     7.55200 141230.55028 140388.52387
     7.55600 142690.05664 142488.90936
     7.56000 144534.14876 142839.42672
     7.56400 146918.45660 144530.18470
     7.56800 150091.47423 148118.57690
     7.57200 154471.56828 154511.68028
     7.57600 160793.27881 161794.77561
     7.58000 170348.04924 173283.16430
     7.58400 185211.15106 190507.65669
     7.58800 207918.05399 213098.76676
     7.59200 239704.03251 244034.77939
     7.59600 277228.62110 277112.23462
     7.60000 311501.23957 314308.06290
     7.60400 335077.17224 335374.58801
     7.60800 348102.01980 350269.75444
     7.61200 353287.97449 355688.57036
     7.61600 352121.83129 353404.40499
     7.62000 344343.92881 341698.81064
     7.62400 328296.37367 325961.30426
     7.62800 302214.99844 299707.90639
     7.63200 267106.41976 267043.69466
     7.63600 229740.90708 231266.97173
     7.64000 199553.62521 200211.49850
     7.64400 179567.54071 175485.41846
     7.64800 167074.55053 162956.27566
     7.65200 159101.40925 156580.16005
     7.65600 153771.48193 156172.70693
     7.66000 150035.33789 151112.95098
     7.66400 147312.29446 151108.91710
     7.66800 145268.32991 142944.39101
     7.67200 143700.11205 142029.43333
     7.67600 142477.04782 142162.52640
     7.68000 141511.60414 140721.40737
     7.68400 140743.15680 141325.19194
     7.68800 140128.60972 140029.84690
     7.69200 139636.65735 140689.01648
     7.69600 139244.14100 141213.40732
     7.70000 138933.66365 137424.79370
     7.70400 138691.99029 137631.69048
     7.70800 138508.95088 137849.85595
     7.71200 138376.67329 139063.43069
     7.71600 138289.03788 137721.41993
     7.72000 138241.28387 140148.66638
     7.72400 138229.72181 137682.95544
     7.72800 138251.52209 137196.18604
     7.73200 138304.55657 140340.66395
     7.73600 138387.28141 138149.94857
     7.74000 138498.64947 137880.26648
     7.74400 138638.04641 139222.74320
     7.74800 138805.24342 139370.48431
     7.75200 139000.36488 137677.09722
     7.75600 139223.86785 140373.61054
     7.76000 139476.53148 140420.78621
     7.76400 139759.45509 141141.56618
     7.76800 140074.06527 140646.87583
     7.77200 140422.12971 139103.64097
     7.77600 140805.77956 140449.29547
     7.78000 141227.54173 139860.90993
     7.78400 141690.37805 140549.93204
     7.78800 142197.73745 141317.75566
     7.79200 142753.61914 144812.55441
     7.79600 143362.65016 144615.72529
     7.80000 144030.18069 146162.58034
     7.80400 144762.40120 144367.83845
     7.80800 145566.48326 144276.72422
     7.81200 146450.75475 145953.56392
     7.81600 147424.91301 145614.68772
     7.82000 148500.28911 149569.15636
     7.82400 149690.17679 148328.78981
     7.82800 151010.24148 150530.72513
     7.83200 152479.03608 151994.58739
     7.83600 154118.65431 153379.18666
     7.84000 155955.56595 153708.30279
     7.84400 158021.69183 153822.94564
     7.84800 160355.80469 156680.95425
     7.85200 163005.36872 162505.87947
     7.85600 166028.98602 160313.97561
     7.86000 169499.69170 162949.98636
     7.86400 173509.44262 168414.31130
     7.86800 178175.32935 171198.92756
     7.87200 183648.32285 176685.23278
     7.87600 190125.84973 182233.82470
     7.88000 197870.39660 188216.09241
     7.88400 207238.04713 200845.29523
     7.88800 218724.03340 207293.70571
     7.89200 233037.69368 216194.69943
     7.89600 251226.25399 235070.01672
     7.90000 274872.43602 260599.89387
     7.90400 306386.32714 291599.86620
     7.90800 349377.54763 335009.12981
     7.91200 408974.04567 398469.90987
     7.91600 491618.86954 483355.63773
     7.92000 603283.79106 593588.20687
     7.92400 744930.96114 739446.62717
     7.92800 906405.08763 898019.88823
     7.93200 1065339.44656 1057989.80771
     7.93600 1197413.30332 1183005.61058
     7.94000 1289047.33008 1278198.71554
     7.94400 1338286.47394 1329292.18695
     7.94800 1347389.04828 1342595.10675
     7.95200 1317240.27523 1297833.78800
     7.95600 1246422.69674 1232691.62067
     7.96000 1134324.00887 1130961.15413
     7.96400 987321.06396 995624.83673
     7.96800 823622.23103 843533.16824
     7.97200 668467.73400 677925.93084
     7.97600 540375.25059 530474.74163
     7.98000 443857.69997 424374.85498
     7.98400 374142.45180 355308.80020
     7.98800 324162.82248 306749.25812
     7.99200 287890.21609 273133.31617
     7.99600 260977.16698 249867.58292
     8.00000 240494.49243 231463.29358
     8.00400 224520.95032 215469.49605
     8.00800 211797.11992 206054.31700
     8.01200 201481.21824 195816.53599
     8.01600 192991.08910 190856.68087
     8.02000 185909.84328 182188.60324
     8.02400 179925.10416 178795.62717
     8.02800 174845.33150 172655.93139
     8.03200 170429.68978 167589.03490
     8.03600 166678.64313 165786.12486
     8.04000 163414.27174 164335.13000
     8.04400 160555.32182 159745.23276
     8.04800 158036.86601 160931.56132
     8.05200 155806.51419 159321.03943
     8.05600 153821.60941 157079.27630
     8.06000 152047.13178 154208.45045
     8.06400 150454.11206 157005.00892
     8.06800 149018.41550 153976.13745
     8.07200 147719.80357 152562.80652
     8.07600 146541.20067 150833.46191
     8.08000 145468.11775 150147.25502
     8.08400 144488.19466 149865.40506
     8.08800 143590.83543 148487.83260
     8.09200 142766.91321 149369.60655
     8.09600 142008.53171 144220.01474
     8.10000 141308.83179 145684.47808
     8.10400 140661.83080 144742.59883
     8.10800 140062.29226 141710.12489
     8.11200 139505.61609 143074.47492
     8.11600 138987.74768 143415.05141
     8.12000 138505.10230 143259.72291
     8.12400 138054.50129 141592.85207
     8.12800 137633.11715 139700.71155
     8.13200 137238.42902 138972.11641
     8.13600 136868.18267 141336.95538
     8.14000 136520.35736 139516.70751
     8.14400 136193.13810 136619.29945
     8.14800 135884.89037 141420.27304
     8.15200 135594.13898 140729.28024
     8.15600 135319.54990 138896.07689
     8.16000 135059.91422 138595.76786
     8.16400 134814.13433 138261.36601
     8.16800 134581.21213 136291.98119
     8.17200 134360.23812 136902.85648
     8.17600 134150.38193 136682.79491
     8.18000 133950.88425 136495.09169
     8.18400 133761.05018 137225.16620
     8.18800 133580.24216 137489.97569
     8.19200 133407.87450 139807.87141
     8.19600 133243.40867 137716.93686
     8.20000 133086.34837 136336.60975
     8.20400 132936.23614 136068.32677
     8.20800 132792.64922 137165.87381
     8.21200 132655.19692 135005.09641
     8.21600 132523.51735 135398.75747
     8.22000 132397.27517 134918.03710
     8.22400 132276.15917 135399.27538
     8.22800 132159.88010 134533.85608
     8.23200 132048.16919 134110.26167
     8.23600 131940.77608 133289.85128
     8.24000 131837.46737 133711.99093
     8.24400 131738.02555 133171.45965
     8.24800 131642.24668 132950.08741
     8.25200 131549.98511 134297.96431
     8.25600 131461.21477 130139.08819
     8.26000 131375.87414 133350.48011
     8.26400 131293.10753 132770.36352
     8.26800 131213.03310 134862.70777
     8.27200 131135.64895 132247.18405
     8.27600 131060.82613 131766.66312
     8.28000 130988.44336 132336.53199
     8.28400 130918.38655 130645.67883
     8.28800 130850.54838 132221.67433
     8.29200 130784.82769 132698.67004
     8.29600 130721.12904 132903.85399
     8.30000 130659.36235 133018.40456
     8.30400 130599.44260 133289.49108
     8.30800 130541.28953 132053.67208
     8.31200 130484.82724 131455.88687
     8.31600 130429.98389 132988.69534
     8.32000 130376.69147 133597.49294
     8.32400 130324.88554 134891.16362
     8.32800 130274.50505 133697.16891
     8.33200 130225.49404 133203.35302
     8.33600 130177.83445 133050.79281
     8.34000 130131.62788 133071.58719
     8.34400 130087.04372 134631.97816
     8.34800 130043.69939 131452.39264
     8.35200 130000.76583 132396.99098
     8.35600 129958.90903 131843.40339
     8.36000 129918.08850 132517.82983
     8.36400 129878.26568 132510.71369
     8.36800 129839.40382 133112.56843
     8.37200 129801.46788 132634.21508
     8.37600 129764.42447 130851.89529
     8.38000 129728.24170 129386.83862
     8.38400 129692.88915 129973.57630
     8.38800 129658.33873 130774.78772
     8.39200 129624.53571 130150.07617
     8.39600 129590.95217 128767.68526
     8.40000 129556.43317 131065.60814
     8.40400 129519.71355 129376.59746
     8.40800 129478.58774 130666.75936
     8.41200 129448.48231 129864.60879
     8.41600 129419.00482 127815.40726
     8.42000 129390.13496 131882.78003
     8.42400 129361.85325 129640.66108
     8.42800 129334.14103 129382.96178
     8.43200 129306.98040 129514.16072
     8.43600 129280.35420 130466.71336
     8.44000 129254.24595 129072.23675
     8.44400 129228.63982 134296.90002
     8.44800 129203.52063 130293.55606
     8.45200 129178.87379 129021.46401
     8.45600 129154.68530 131034.35889
     8.46000 129130.94169 131664.76345
     8.46400 129107.63000 132605.80830
     8.46800 129084.73778 128359.52650
     8.47200 129062.25303 128201.82496
     8.47600 129040.16423 128279.85093
     8.48000 129018.46027 129417.12836
     8.48400 128997.13046 127604.51446
     8.48800 128976.16450 128822.73683
     8.49200 128955.55246 129646.23196
     8.49600 128935.28479 126101.03101
     8.50000 128915.35226 130115.45913
     8.50400 128895.74599 127370.85664
     8.50800 128876.45741 126584.13580
     8.51200 128857.47823 126966.23660
     8.51600 128838.80048 129490.12967
     8.52000 128820.41645 128663.67367
     8.52400 128802.31869 126399.29149
     8.52800 128784.50002 125318.32774
     8.53200 128766.95352 129037.83942
     8.53600 128749.67246 128655.78134
     8.54000 128732.65038 128725.81864
     8.54400 128715.88100 130484.75802
     8.54800 128699.35826 131414.27572
     8.55200 128683.07632 129065.26422
     8.55600 128667.02949 129380.23624
     8.56000 128651.21231 126719.64893
     8.56400 128635.61945 128604.66391
     8.56800 128620.24579 128586.90913
     8.57200 128605.08635 131719.64021
     8.57600 128590.13631 129004.88263
     8.58000 128575.39102 127513.48642
     8.58400 128560.84594 128234.21628
     8.58800 128546.49670 126313.27168
     8.59200 128532.33906 128696.10064
     8.59600 128518.36993 128061.12729
     8.60000 128504.55582 130656.26466
     8.60400 128490.34371 129003.98056
     8.60800 128474.49158 129856.54754
     8.61200 128455.63109 128713.19489
     8.61600 128431.36627 128392.47821
     8.62000 128418.59862 129218.72950
     8.62400 128405.99106 129488.31119
     8.62800 128393.54037 127611.94169
     8.63200 128381.24347 128282.26204
     8.63600 128369.09732 129543.27127
     8.64000 128357.09901 128267.58035
     8.64400 128345.24567 126661.15961
     8.64800 128333.53455 125404.41390
     8.65200 128321.96296 127712.76938
     8.65600 128310.52828 127533.99814
     8.66000 128299.22798 126916.55165
     8.66400 128288.05959 125310.78115
     8.66800 128277.02071 127603.45163
     8.67200 128266.10902 129963.40718
     8.67600 128255.32223 128598.24920
     8.68000 128244.65814 128865.25027
     8.68400 128234.11461 128384.29214
     8.68800 128223.68954 127868.67678
     8.69200 128213.38091 125471.04121
     8.69600 128203.18672 129995.65334
     8.70000 128193.10506 126578.34079
     8.70400 128183.13405 127864.78863
     8.70800 128173.27186 129575.40602
     8.71200 128163.51671 130515.85170
     8.71600 128153.86688 128196.21556
     8.72000 128144.32067 126167.62497
     8.72400 128134.87645 125418.83360
     8.72800 128125.53260 126364.89061
     8.73200 128116.28758 124685.36209
     8.73600 128107.13986 125378.47923
     8.74000 128098.08797 127893.13956
     8.74400 128089.13045 127252.25160
     8.74800 128080.26590 126142.96144
     8.75200 128071.49295 127372.96752
     8.75600 128062.81026 125167.44611
     8.76000 128054.21653 124987.09638
     8.76400 128045.71049 126159.35270
     8.76800 128037.29089 127299.48030
     8.77200 128028.95654 126853.93584
     8.77600 128020.70625 126079.52183
     8.78000 128012.53887 125657.32295
     8.78400 128004.45328 127284.35941
     8.78800 127996.44839 126735.26624
     8.79200 127988.52313 125395.79446
     8.79600 127980.67646 129453.49068
     8.80000 127972.90737 128085.66743
     8.80400 127965.21487 125927.21220
     8.80800 127957.59799 126819.30564
     8.81200 127950.05579 125272.30381
     8.81600 127942.58735 128212.27796
     8.82000 127935.19178 129757.40868
     8.82400 127927.86821 128007.04873
     8.82800 127920.61577 127501.39271
     8.83200 127913.43365 126383.27172
     8.83600 127906.32103 126603.18675
     8.84000 127899.27711 127102.64204
     8.84400 127892.30114 125280.98882
     8.84800 127885.39236 128707.97125
     8.85200 127878.55003 129127.46310
     8.85600 127871.77346 128204.48296
     8.86000 127865.06193 128378.62833
     8.86400 127858.41477 129491.31250
     8.86800 127851.83133 126976.36475
     8.87200 127845.31096 125906.46957
     8.87600 127838.85298 126820.57322
     8.88000 127832.46753 127441.75839
     8.88400 127826.20570 128164.63605
     8.88800 127820.14057 127784.71379
     8.89200 127814.13520 126656.74334
     8.89600 127807.98364 127455.01990
     8.90000 127801.89116 126994.35463
     8.90400 127795.85723 126868.03766
     8.90800 127789.88137 126158.56070
     8.91200 127783.96309 125337.90296
     8.91600 127778.10193 125733.52370
     8.92000 127772.29743 128891.28279
     8.92400 127766.54863 130012.05857
     8.92800 127760.89107 129054.38779
     8.93200 127755.44719 127919.19968
     8.93600 127750.30181 127336.15921
     8.94000 127744.88782 126140.97849
     8.94400 127739.41865 125706.32870
     8.94800 127734.00345 125822.06736
     8.95200 127728.64188 124946.42705
     8.95600 127723.33363 126313.06042
     8.96000 127718.07840 125796.53195
     8.96400 127712.87590 126511.47717
     8.96800 127707.72587 127385.09745
     8.97200 127702.62806 127901.94747
     8.97600 127697.58221 127134.88472
     8.98000 127692.58812 126263.72611
     8.98400 127687.64558 124596.60729
     8.98800 127682.75439 125402.54448
     8.99200 127677.91440 125071.39441
     8.99600 127673.12543 126965.97002
     9.00000 127668.38736 125588.38868
     9.00400 127663.70007 125670.29846
     9.00800 127659.06346 122170.51763
     9.01200 127654.47744 124808.21668
     9.01600 127649.94196 125308.07508
     9.02000 127645.45697 126468.66613
     9.02400 127641.02246 127782.12598
     9.02800 127636.63841 127039.53996
     9.03200 127632.30487 124371.09662
     9.03600 127628.02187 124060.69024
     9.04000 127623.78948 125576.01547
     9.04400 127619.60781 126488.18559
     9.04800 127615.47697 128364.71257
     9.05200 127611.39711 125966.34351
     9.05600 127607.36840 125316.48958
     9.06000 127603.39106 123444.20101
     9.06400 127599.46532 125189.61964
     9.06800 127595.59145 127551.40341
     9.07200 127591.76976 127185.36076
     9.07600 127588.00058 127484.41336
     9.08000 127584.28430 127011.70234
     9.08400 127580.62132 124702.07317
     9.08800 127577.01211 127169.78547
     9.09200 127573.45718 126914.44329
     9.09600 127569.95706 125167.57975
     9.10000 127566.51237 125456.01534
     9.10400 127563.12375 125129.76438
     9.10800 127559.79191 126201.04232
     9.11200 127556.51761 128450.26499
     9.11600 127553.30170 128736.64006
     9.12000 127550.14506 124224.81461
     9.12400 127547.04865 125660.10141
     9.12800 127544.01354 128364.42359
     9.13200 127541.04083 127401.60684
     9.13600 127538.13174 126007.45487
     9.14000 127535.28758 126607.92013
     9.14400 127532.50975 125862.97392
     9.14800 127529.79977 124637.75309
     9.15200 127527.15925 124916.24594
     9.15600 127524.58995 125616.26677
     9.16000 127522.09375 126182.19537
     9.16400 127519.67268 124920.30834
     9.16800 127517.32891 122866.54618
     9.17200 127515.06480 126508.76212
     9.17600 127512.88287 125512.09620
     9.18000 127510.78584 128278.34442
     9.18400 127508.77665 125539.94675
     9.18800 127507.09378 125235.38541
     9.19200 127509.96297 127367.26682
     9.19600 127527.93116 126148.38861
     9.20000 127568.12027 125011.06859
     9.20400 127577.02267 123566.37423
     9.20800 127577.88107 123825.01925
     9.21200 127578.95733 124507.05590
     9.21600 127580.26309 126225.73403
     9.22000 127581.81099 127675.86479
     9.22400 127583.61466 127355.91748
     9.22800 127585.68888 126329.75592
     9.23200 127588.12878 126966.49679
     9.23600 127588.57834 124977.61778
     9.24000 127578.47292 125107.93149
     9.24400 127539.55926 126626.94756
     9.24800 127528.01398 124900.02705
     9.25200 127433.81980 125682.51735
     9.25600 127439.36887 123645.15409
     9.26000 127445.35529 123335.76577
     9.26400 127451.81143 126698.74261
     9.26800 127458.77289 127946.63711
     9.27200 127466.27881 128802.56960
     9.27600 127474.37237 127102.87233
     9.28000 127483.10127 123863.93612
     9.28400 127492.51833 124092.40671
     9.28800 127502.68213 124623.09824
     9.29200 127513.65782 124983.19484
     9.29600 127525.51803 126548.32610
     9.30000 127538.34390 127785.73889
     9.30400 127552.22629 125638.23169
     9.30800 127567.26729 125380.20725
     9.31200 127583.58187 125857.99867
     9.31600 127601.29993 127831.42800
     9.32000 127620.56866 127348.01278
     9.32400 127641.55538 125052.84337
     9.32800 127664.45105 126186.29886
     9.33200 127689.47430 125774.58158
     9.33600 127716.87645 127869.24674
     9.34000 127746.94763 127527.45996
     9.34400 127780.02421 127093.43120
     9.34800 127816.96292 126177.79948
     9.35200 127860.22233 127067.73856
     9.35600 127911.52998 124889.28134
     9.36000 127962.30459 128681.01706
     9.36400 128017.91279 127402.56375
     9.36800 128080.22872 126026.12430
     9.37200 128150.35352 125828.97852
     9.37600 128229.62699 128371.47075
     9.38000 128319.69304 129135.84722
     9.38400 128422.58738 128806.84935
     9.38800 128540.85672 127902.52289
     9.39200 128677.72320 128447.85600
     9.39600 128837.31620 127576.48643
     9.40000 129025.00621 126376.11324
     9.40400 129247.89758 128274.06143
     9.40800 129515.57285 128990.17674
     9.41200 129841.24236 128538.67501
     9.41600 130243.55386 128004.79369
     9.42000 130749.47827 125564.69428
     9.42400 131398.91113 128879.76710
     9.42800 132251.81505 132918.21520
     9.43200 133398.54552 132364.60101
     9.43600 134972.53773 134412.78919
     9.44000 137160.16262 135673.12989
     9.44400 140199.47208 140109.07587
     9.44800 144401.08538 145444.23237
     9.45200 150510.07221 151370.43971
     9.45600 161872.78857 166728.69657
     9.46000 188208.49745 196553.25845
     9.46400 240335.06749 241901.80064
     9.46800 299975.23419 287064.70295
     9.47200 324464.17095 320394.48514
     9.47600 331019.99930 337053.52466
     9.48000 332150.18915 340183.04525
     9.48400 330577.57768 340314.14693
     9.48800 326682.45914 335192.63428
     9.49200 319122.23827 323650.68610
     9.49600 301214.94111 294389.78467
     9.50000 260462.91495 253669.70935
     9.50400 196286.63514 203682.20069
     9.50800 156528.60350 169805.53836
     9.51200 142770.56785 150730.32464
     9.51600 137611.73730 144315.30157
     9.52000 134876.57733 141406.32073
     9.52400 133175.77857 136681.44668
     9.52800 132019.37341 131726.23536
     9.53200 131186.01255 132966.51949
     9.53600 130560.13983 132103.12403
     9.54000 130075.28732 132852.93053
     9.54400 129690.45024 131200.62577
     9.54800 129378.95029 130961.44995
     9.55200 129122.68752 130518.00106
     9.55600 128908.95918 128931.71839
     9.56000 128728.59792 129971.63375
     9.56400 128574.83095 129815.75512
     9.56800 128442.55371 127973.42840
     9.57200 128327.85181 126619.57849
     9.57600 128227.67786 127603.24887
     9.58000 128139.62765 127632.50146
     9.58400 128061.78162 129679.33351
     9.58800 127992.59078 128699.79505
     9.59200 127930.79305 129452.43451
     9.59600 127876.03127 127866.95422
     9.60000 127830.37250 129344.53415
     9.60400 127794.84022 126337.92441
     9.60800 127755.34706 128819.67341
     9.61200 127718.11489 126899.92706
     9.61600 127684.11670 127262.30290
     9.62000 127652.98193 126608.30583
     9.62400 127624.39217 128347.66085
     9.62800 127598.07250 128823.88262
     9.63200 127573.78455 128415.07825
     9.63600 127551.32073 128613.60416
     9.64000 127530.49962 127386.61325
     9.64400 127511.16201 128106.74104
     9.64800 127493.16776 127765.11312
     9.65200 127476.39307 127669.38408
     9.65600 127460.72827 126948.55789
     9.66000 127446.07587 127950.47712
     9.66400 127432.34902 128021.21294
     9.66800 127419.47009 128180.41419
     9.67200 127407.36955 126701.65904
     9.67600 127395.98496 126722.39686
     9.68000 127385.26011 128445.33804
     9.68400 127375.14430 124865.21328
     9.68800 127365.59169 125992.57574
     9.69200 127356.56076 124279.63269
     9.69600 127348.01382 126270.63561
     9.70000 127339.91660 126542.37770
     9.70400 127332.23786 124979.12661
     9.70800 127324.94913 126402.63588
     9.71200 127318.02434 126802.84587
     9.71600 127311.43967 125597.21134
     9.72000 127305.17323 125778.70668
     9.72400 127299.20495 126910.87304
     9.72800 127293.51636 126140.04126
     9.73200 127288.09044 124674.35135
     9.73600 127282.91153 125433.89177
     9.74000 127277.96512 124633.83444
     9.74400 127273.23783 127052.60783
     9.74800 127268.71728 127955.83870
     9.75200 127264.39198 126374.84376
     9.75600 127260.25128 130871.29080
     9.76000 127256.05648 125075.66862
     9.76400 127247.70589 126781.45426
     9.76800 127225.18313 129421.69044
     9.77200 127219.21390 127635.06574
     9.77600 127172.47925 125802.30681
     9.78000 127171.12781 127271.32606
     9.78400 127169.83020 126048.36146
     9.78800 127168.58396 129249.16748
     9.79200 127167.43434 127870.59623
     9.79600 127166.82133 127435.10514
     9.80000 127167.67574 128577.13229
     9.80400 127169.67265 126259.22252
     9.80800 127168.75154 127375.35117
     9.81200 127167.87419 128049.88305
     9.81600 127167.03932 125752.24299
     9.82000 127166.24576 123795.17935
     9.82400 127165.49239 126412.53048
     9.82800 127164.77821 129322.79957
     9.83200 127164.10226 127574.66350
     9.83600 127163.46367 128363.85600
     9.84000 127162.86163 128504.80961
     9.84400 127162.29542 127311.24860
     9.84800 127161.76434 127778.61312
     9.85200 127161.26779 124004.26324
     9.85600 127160.80521 126040.87463
     9.86000 127160.37609 125998.66134
     9.86400 127159.97998 123948.91681
     9.86800 127159.61650 125914.93079
     9.87200 127159.28530 127523.02928
     9.87600 127158.98609 128259.32080
     9.88000 127158.71861 126757.48336
     9.88400 127158.48268 125202.02173
     9.88800 127158.27815 126116.99965
     9.89200 127158.10492 126116.98589
     9.89600 127157.96294 125707.41440
     9.90000 127157.85219 126311.02475
     9.90400 127157.77274 125774.83817
     9.90800 127157.72466 126952.96645
     9.91200 127157.70810 124585.61911
     9.91600 127157.72326 127280.21560
     9.92000 127157.77036 128314.42361
     9.92400 127157.84971 127504.29225
     9.92800 127157.96165 126798.15171
     9.93200 127158.10658 126654.70643
     9.93600 127158.28496 124037.89433
     9.94000 127158.49731 126035.83687
     9.94400 127158.74420 125703.85441
     9.94800 127159.02629 126447.28994
     9.95200 127159.34427 126953.22704
     9.95600 127159.69893 128122.52409
     9.96000 127160.09113 129090.75769
     9.96400 127160.52180 126233.97045
     9.96800 127160.99196 126156.96219
     9.97200 127161.50270 126117.42587
     9.97600 127162.05524 129394.09175
     9.98000 127162.65087 126675.72132
     9.98400 127163.29099 127694.94589
     9.98800 127163.97712 125449.05047
     9.99200 127164.71092 128493.04711
     9.99600 127165.49415 126533.30384
    10.00000 127166.32873 126776.88209
    10.00400 127167.65589 126742.13137
    10.00800 127171.91569 128152.07107
    10.01200 127180.40871 125746.20680
    10.01600 127181.63127 128997.06175
    10.02000 127182.80482 127610.23749
    10.02400 127184.04522 126035.34176
    10.02800 127185.35579 125936.19798
    10.03200 127186.74011 126659.94118
    10.03600 127188.20207 131123.07861
    10.04000 127189.74587 126865.12430
    10.04400 127191.37610 126666.45199
    10.04800 127193.09773 125440.03786
    10.05200 127194.91619 127993.13866
    10.05600 127196.83737 125457.03327
    10.06000 127198.86774 129258.72690
    10.06400 127201.01434 126305.72870
    10.06800 127203.28489 125068.48363
    10.07200 127205.68785 124936.14011
    10.07600 127208.23253 129437.87463
    10.08000 127210.92917 126949.06949
    10.08400 127213.78904 126684.12084
    10.08800 127216.82462 127268.14901
    10.09200 127220.04972 126967.53093
    10.09600 127223.47965 125831.33783
    10.10000 127227.13147 126701.65890
    10.10400 127231.02416 125829.46092
    10.10800 127235.17898 127096.52239
    10.11200 127239.61973 125876.29891
    10.11600 127244.37319 126022.32801
    10.12000 127249.46953 128001.15301
    10.12400 127254.94290 128114.62337
    10.12800 127260.83203 123142.72765
    10.13200 127267.18108 125013.41830
    10.13600 127274.04047 123652.81122
    10.14000 127281.46814 125535.76976
    10.14400 127289.53082 123596.07641
    10.14800 127298.30578 124008.53553
    10.15200 127307.88293 124833.20028
    10.15600 127318.36738 126192.98163
    10.16000 127329.88268 126369.87277
    10.16400 127342.57492 125178.21273
    10.16800 127356.61790 127924.71343
    10.17200 127372.21981 127137.10576
    10.17600 127389.63177 126796.02701
    10.18000 127409.15910 125422.03805
    10.18400 127431.17616 126492.16461
    10.18800 127456.14621 123914.74787
    10.19200 127484.64828 126259.58460
    10.19600 127517.41427 125566.30864
    10.20000 127555.38082 127326.23907
    10.20400 127599.76387 126422.71504
    10.20800 127652.16898 127898.18522
    10.21200 127714.75969 125900.05530
    10.21600 127790.88750 125799.25852
    10.22000 127886.35582 124979.07837
    10.22400 128008.21471 124203.60131
    10.22800 128158.19036 127349.95899
    10.23200 128353.29899 128873.74894
    10.23600 128613.68401 128672.89095
    10.24000 128967.02406 128599.42198
    10.24400 129450.67636 129955.23140
    10.24800 130112.30347 128355.37033
    10.25200 131020.04875 128077.49494
    10.25600 132331.37361 132333.53261
    10.26000 134484.30107 135805.73802
    10.26400 138217.36452 139831.86033
    10.26800 143554.89379 145794.20660
    10.27200 148348.08900 150397.91529
    10.27600 150594.87208 152920.94729
    10.28000 151353.61642 154421.52729
    10.28400 151412.06134 159621.57786
    10.28800 151000.82478 157532.28887
    10.29200 150125.54456 153620.29793
    10.29600 148549.30514 149577.65549
    10.30000 145643.02707 145809.04484
    10.30400 140855.08485 144175.47843
    10.30800 135307.25469 136267.01153
    10.31200 131746.24825 133834.41466
    10.31600 130148.67603 130121.75913
    10.32000 129343.45654 129144.83174
    10.32400 128866.61913 129372.25540
    10.32800 128554.98371 127738.68637
    10.33200 128338.40975 126504.18644
    10.33600 128181.45781 127533.66906
    10.34000 128064.33527 126480.41653
    10.34400 127975.15568 126849.19692
    10.34800 127906.37108 126959.96779
    10.35200 127852.97540 127854.34079
    10.35600 127811.53384 128438.61732
    10.36000 127779.85605 129110.93211
    10.36400 127757.19161 127247.96060
    10.36800 127742.86031 128209.49894
    10.37200 127731.39112 127612.26457
    10.37600 127724.42791 127004.93107
    10.38000 127721.91641 126546.16374
    10.38400 127723.52142 126936.10742
    10.38800 127729.02945 126665.49547
    10.39200 127738.33035 123720.53648
    10.39600 127751.40582 125111.87641
    10.40000 127768.32334 125327.33454
    10.40400 127789.23453 128687.12216
    10.40800 127814.37782 128947.21219
    10.41200 127844.08505 128711.05906
    10.41600 127878.79263 126424.91214
    10.42000 127919.05808 127527.10490
    10.42400 127965.58301 127225.17894
    10.42800 128019.24490 126002.13658
    10.43200 128081.14051 127054.19211
    10.43600 128152.64530 127850.85733
    10.44000 128235.49467 125621.85001
    10.44400 128331.89501 125856.67758
    10.44800 128444.67473 126743.20607
    10.45200 128577.48822 125237.47380
    10.45600 128735.08971 126944.62008
    10.46000 128923.69777 127280.88658
    10.46400 129151.47376 128260.35144
    10.46800 129429.13383 127439.31044
    10.47200 129770.69063 126706.12411
    10.47600 130194.25673 126138.41480
    10.48000 130722.69466 129534.45342
    10.48400 131383.58653 131573.56363
    10.48800 132207.35665 130486.77961
    10.49200 133221.25100 133111.47657
    10.49600 134435.83882 133910.22081
    10.50000 135823.03575 132826.11582
    10.50400 137295.73393 134469.77876
    10.50800 138713.20957 138053.66935
    10.51200 139924.51299 138647.06390
    10.51600 140818.16834 140561.28418
    10.52000 141336.80390 141270.65558
    10.52400 141460.14347 142012.07588
    10.52800 141185.22696 144740.03168
    10.53200 140520.94215 142096.09338
    10.53600 139499.48123 139419.49308
    10.54000 138197.12051 139200.38718
    10.54400 136742.70796 137344.75087
    10.54800 135289.85238 132294.30405
    10.55200 133963.77462 132028.35727
    10.55600 132828.59845 136607.29047
    10.56000 131894.32463 129945.57481
    10.56400 131141.15436 131696.66492
    10.56800 130539.11094 129909.21193
    10.57200 130058.27237 128651.77024
    10.57600 129672.73338 129142.96888
    10.58000 129361.50505 127159.78754
    10.58400 129108.15534 126796.79852
    10.58800 128900.01250 127570.24216
    10.59200 128727.28329 127359.44582
    10.59600 128582.69308 128163.92519
    10.60000 128460.13413 130608.33360
    10.60400 128357.00438 128722.65505
    10.60800 128269.01471 127350.95474
    10.61200 128193.26322 128005.67210
    10.61600 128127.91676 126657.59185
    10.62000 128071.35701 129875.70728
    10.62400 128022.28399 126748.31896
    10.62800 127979.64292 129796.34036
    10.63200 127942.57028 130859.23562
    10.63600 127910.35349 131232.87020
    10.64000 127882.40050 125730.64408
    10.64400 127858.21663 125743.31496
    10.64800 127837.38648 127695.37621
    10.65200 127819.55987 128932.93817
    10.65600 127804.44064 132639.47284
    10.66000 127791.77762 128022.47604
    10.66400 127781.35751 125446.16730
    10.66800 127772.99895 124354.51754
    10.67200 127766.54776 126482.04535
    10.67600 127761.87305 130721.27804
    10.68000 127758.86399 128041.37207
    10.68400 127757.42715 128126.65868
    10.68800 127757.48435 126017.44419
    10.69200 127758.97080 124510.26642
    10.69600 127761.83360 125898.07510
    10.70000 127766.03055 124100.74459
    10.70400 127771.52907 127172.31576
    10.70800 127778.30537 126693.61927
    10.71200 127786.34377 128376.92414
    10.71600 127795.63620 128021.36864
    10.72000 127806.18166 127319.86665
    10.72400 127817.98597 126233.30293
    10.72800 127831.06156 127553.45486
    10.73200 127845.42723 128022.90389
    10.73600 127861.10810 130478.99881
    10.74000 127878.13570 128392.87284
    10.74400 127896.54789 131344.18722
    10.74800 127916.38910 129538.32642
    10.75200 127937.71052 127060.24561
    10.75600 127960.57030 127062.07377
    10.76000 127985.03430 128600.54980
    10.76400 128011.12931 130017.03524
    10.76800 128038.50382 126409.88096
    10.77200 128066.83839 126257.98921
    10.77600 128095.12176 126967.84773
    10.78000 128128.96650 131740.17594
    10.78400 128164.99002 127423.59510
    10.78800 128203.32604 127145.86422
    10.79200 128244.12164 129843.81070
    10.79600 128287.59556 126380.89135
    10.80000 128334.52376 126675.43890
    10.80400 128386.83089 126884.49081
    10.80800 128443.91120 127729.93068
    10.81200 128499.81396 127750.40582
    10.81600 128559.42847 127051.35862
    10.82000 128623.04496 126764.06555
    10.82400 128690.98459 127716.91718
    10.82800 128763.60349 126015.03145
    10.83200 128841.29711 125683.48442
    10.83600 128924.50534 124890.41734
    10.84000 129013.71867 129602.91974
    10.84400 129109.48511 129044.08415
    10.84800 129212.41819 128866.24731
    10.85200 129323.20681 130348.10715
    10.85600 129442.62622 126857.82290
    10.86000 129571.55132 128253.45384
    10.86400 129710.97235 131682.95499
    10.86800 129862.01354 130921.60701
    10.87200 130025.95526 127857.78980
    10.87600 130204.26102 131651.84820
    10.88000 130398.60943 132030.65761
    10.88400 130610.93331 132304.42465
    10.88800 130843.46744 128600.98554
    10.89200 131098.80690 128751.86397
    10.89600 131379.97888 128780.52346
    10.90000 131690.53229 131378.59281
    10.90400 132034.64948 131102.52610
    10.90800 132417.28648 132736.96298
    10.91200 132844.35213 130119.12144
    10.91600 133322.96382 128980.69934
    10.92000 133861.96596 132400.33913
    10.92400 134472.23497 133515.49401
    10.92800 135165.55912 135647.25192
    10.93200 135957.18406 131583.56487
    10.93600 136867.73960 134662.18455
    10.94000 137922.23506 136370.52797
    10.94400 139152.67041 139376.16406
    10.94800 140600.59452 141310.05812
    10.95200 142320.89935 144287.60320
    10.95600 144387.57248 145173.05289
    10.96000 146902.51960 149392.72229
    10.96400 150009.01660 149963.68381
    10.96800 153911.63533 155262.59077
    10.97200 158904.21040 158244.69241
    10.97600 165405.76225 166540.17180
    10.98000 173999.46868 175486.99504
    10.98400 185456.24740 188557.59627
    10.98800 200688.84525 208744.46842
    10.99200 220518.58188 229012.90174
    10.99600 245141.15502 255688.99044
    11.00000 273534.04734 284858.13700
    11.00400 303659.91366 319858.99004
    11.00800 333598.41661 350687.32551
    11.01200 361337.33135 379471.61971
    11.01600 382729.61041 397860.56958
    11.02000 393636.20804 408111.08485
    11.02400 393894.42191 409312.89666
    11.02800 384842.14230 406861.03793
    11.03200 367569.98672 387265.12245
    11.03600 343429.06677 362247.19944
    11.04000 314558.46970 330118.98449
    11.04400 283192.91654 293529.08379
    11.04800 251000.08364 257751.32775
    11.05200 220732.27028 223451.75339
    11.05600 196717.71491 200001.15236
    11.06000 180105.21225 181079.39507
    11.06400 168890.16956 170290.77131
    11.06800 161048.59249 161688.45304
    11.07200 155316.92497 157057.69819
    11.07600 150968.34960 151366.55253
    11.08000 147572.06595 149849.67510
    11.08400 144858.29304 143565.88221
    11.08800 142649.51793 142751.76106
    11.09200 140824.22516 142766.85409
    11.09600 139296.51666 142705.53656
    11.10000 138004.37084 139670.48226
    11.10400 136902.13850 137175.93873
    11.10800 135952.93187 139590.23360
    11.11200 135127.14757 141117.79335
    11.11600 134405.52748 138233.77464
    11.12000 133771.04852 134632.89531
    11.12400 133210.05229 134261.31050
    11.12800 132711.47153 136143.98095
    11.13200 132266.25839 133733.60085
    11.13600 131866.95498 132853.08367
    11.14000 131507.36835 132612.43143
    11.14400 131182.32031 131197.13719
    11.14800 130887.45292 134199.03417
    11.15200 130619.07728 129836.20813
    11.15600 130374.05324 130445.28210
    11.16000 130149.69386 130716.97993
    11.16400 129943.68909 130623.74360
    11.16800 129754.04377 129151.66702
    11.17200 129579.02726 130124.84162
    11.17600 129417.13240 128815.45791
    11.18000 129267.04181 127066.99601
    11.18400 129127.59955 128587.51385
    11.18800 128997.78817 131397.89352
    11.19200 128876.70902 132532.19819
    11.19600 128763.56611 132689.97283
    11.20000 128657.65220 136091.01679
    11.20400 128558.33736 132537.55684
    11.20800 128465.05873 132420.52487
    11.21200 128377.31240 132947.47637
    11.21600 128294.64603 132264.78466
    11.22000 128216.65257 131483.21817
    11.22400 128142.96503 131670.09155
    11.22800 128073.25185 133602.18572
    11.23200 128007.21275 132132.08917
    11.23600 127944.57537 130745.48872
    11.24000 127885.09217 133736.55177
    11.24400 127828.53776 133345.86940
    11.24800 127774.70658 130898.98189
    11.25200 127723.41084 132131.20576
    11.25600 127674.47868 133151.77938
    11.26000 127627.75265 133048.13843
    11.26400 127583.08822 131328.40677
    11.26800 127540.35259 130287.97330
    11.27200 127499.42353 131702.30235
    11.27600 127460.18835 131777.97876
    11.28000 127422.54319 129459.89558
    11.28400 127386.44907 130487.61872
    11.28800 127352.41682 132808.81342
    11.29200 127322.09818 130751.49785
    11.29600 127294.59575 131126.16529
    11.30000 127263.63557 131014.25520
    11.30400 127233.78600 131159.61701
    11.30800 127204.98597 130875.67046
    11.31200 127177.17863 130066.42080
    11.31600 127150.31106 129615.96446
    11.32000 127124.33392 130044.49855
    11.32400 127099.20113 130933.15545
    11.32800 127074.86974 133057.98975
    11.33200 127051.29958 129346.34119
    11.33600 127028.45305 129154.73929
    11.34000 127006.29506 129008.61855
    11.34400 126984.79269 130290.36545
    11.34800 126963.91511 130824.17792
    11.35200 126943.63342 129771.51412
    11.35600 126923.92057 130431.16941
    11.36000 126904.75112 132422.32310
    11.36400 126886.10122 132210.69084
    11.36800 126867.94848 128978.39058
    11.37200 126850.27187 128106.95475
    11.37600 126833.05163 128678.21827
    11.38000 126816.26920 127975.18391
    11.38400 126799.90713 128881.48935
    11.38800 126783.94905 130920.71631
    11.39200 126768.37953 128951.27818
    11.39600 126753.18412 129599.79963
    11.40000 126738.34921 130483.57636
    11.40400 126723.86204 126353.26259
    11.40800 126709.71063 128446.04699
    11.41200 126695.88373 128286.59147
    11.41600 126682.37079 128807.51856
    11.42000 126669.23989 128494.76726
    11.42400 126657.10969 130997.48832
    11.42800 126647.11565 132116.79190
    11.43200 126637.46456 128725.96927
    11.43600 126625.43754 128459.61080
    11.44000 126613.67478 129082.60067
    11.44400 126602.16978 129634.64860
    11.44800 126590.91653 128583.38448
    11.45200 126579.90950 128488.55554
    11.45600 126569.14362 129194.51859
    11.46000 126558.61423 131549.68718
    11.46400 126548.31711 129736.74453
    11.46800 126538.24844 128605.99840
    11.47200 126528.40479 128529.42963
    11.47600 126518.78314 127369.60516
    11.48000 126509.38084 129966.72170
    11.48400 126500.19561 129666.26961
    11.48800 126491.22979 128765.37970
    11.49200 126482.57719 132011.45799
    11.49600 126474.75141 128340.10809
    11.50000 126467.79964 128345.11058
    11.50400 126459.68484 127305.90497
    11.50800 126451.78121 129756.09333
    11.51200 126444.08905 127413.92885
    11.51600 126436.60898 126995.39632
    11.52000 126429.34206 128025.77858
    11.52400 126422.28965 129222.71599
    11.52800 126415.48252 126763.82631
    11.53200 126409.22901 127243.50336
    11.53600 126403.82861 128823.25947
    11.54000 126397.91329 129182.10335
    11.54400 126391.97393 127430.12968
    11.54800 126386.26584 128815.50335
    11.55200 126380.79329 129461.09950
    11.55600 126375.56103 127715.91118
    11.56000 126370.57429 127849.85818
    11.56400 126365.83882 126430.14265
    11.56800 126361.36090 124395.52453
    11.57200 126357.14735 127543.87645
    11.57600 126353.20557 129053.79313
    11.58000 126349.54359 126659.22550
    11.58400 126346.17008 128678.39775
    11.58800 126343.09440 127050.92318
    11.59200 126340.32660 129387.05273
    11.59600 126337.87753 129889.54101
    11.60000 126335.75886 127037.93756
    11.60400 126333.98307 127147.61999
    11.60800 126332.56361 126774.16552
    11.61200 126331.51490 129301.03772
    11.61600 126330.85239 127725.30667
    11.62000 126330.59266 127850.68420
    11.62400 126330.75351 127965.07300
    11.62800 126331.35400 126230.29610
    11.63200 126332.41460 126837.38601
    11.63600 126333.95725 128399.92884
    11.64000 126336.00548 126745.42480
    11.64400 126338.58461 125897.99342
    11.64800 126341.72182 128237.02540
    11.65200 126345.43562 126459.72175
    11.65600 126349.70610 126534.93740
    11.66000 126354.60297 126862.77763
    11.66400 126359.97426 129374.67511
    11.66800 126366.38875 128489.38358
    11.67200 126373.57314 127928.60661
    11.67600 126381.57299 128746.83532
    11.68000 126390.43742 125721.68887
    11.68400 126400.21960 127079.56562
    11.68800 126410.98294 126019.29049
    11.69200 126422.54586 127948.80662
    11.69600 126434.02443 127207.92569
    11.70000 126447.95800 127999.95518
    11.70400 126459.90175 126684.23733
    11.70800 126476.64441 127452.25120
    11.71200 126494.82546 128650.92080
    11.71600 126514.54814 127871.75709
    11.72000 126535.92526 125735.85621
    11.72400 126559.08031 127663.95480
    11.72800 126584.14867 126309.09559
    11.73200 126611.27896 128088.36944
    11.73600 126640.65401 127407.05283
    11.74000 126672.65002 129781.98054
    11.74400 126707.78247 127866.81554
    11.74800 126745.56696 128984.51140
    11.75200 126785.83280 128139.94495
    11.75600 126829.43798 130505.85418
    11.76000 126876.68400 128487.36174
    11.76400 126927.90724 126786.20351
    11.76800 126983.48393 128470.42466
    11.77200 127043.83588 128325.68137
    11.77600 127109.43737 126504.00873
    11.78000 127180.82297 126966.37116
    11.78400 127258.59720 127533.35676
    11.78800 127343.44547 125664.41898
    11.79200 127436.14758 126353.04361
    11.79600 127537.59375 126376.34230
    11.80000 127648.80365 129356.31146
    11.80400 127770.94991 127277.38464
    11.80800 127905.38612 126908.50937
    11.81200 128053.68133 125875.20603
    11.81600 128217.66224 126774.56076
    11.82000 128399.46590 127030.07982
    11.82400 128601.60432 127729.80885
    11.82800 128827.04595 130002.30573
    11.83200 129079.32776 129363.20072
    11.83600 129362.27595 129067.01438
    11.84000 129679.43907 129640.61842
    11.84400 130040.99984 130745.43289
    11.84800 130447.90167 129334.89789
    11.85200 130920.84653 129120.51972
    11.85600 131463.10096 128309.04424
    11.86000 132089.58671 131954.94537
    11.86400 132819.99799 131837.52573
    11.86800 133678.69268 132328.65500
    11.87200 134697.82397 134140.23809
    11.87600 135920.28963 134503.02267
    11.88000 137403.60625 134824.40212
    11.88400 139224.72121 139858.91949
    11.88800 141485.52494 139879.41280
    11.89200 144318.35677 141706.08406
    11.89600 147889.73146 145644.99114
    11.90000 152398.01268 150420.57303
    11.90400 158055.45978 154327.62890
    11.90800 165037.02262 162399.92964
    11.91200 173375.80386 173464.17595
    11.91600 182813.87529 182589.97531
    11.92000 192696.57525 194088.45107
    11.92400 202056.57212 195972.00800
    11.92800 209911.26165 205361.70362
    11.93200 215554.82656 212419.64116
    11.93600 218627.17343 218083.69734
    11.94000 219002.59988 217549.92909
    11.94400 216672.65402 217437.63707
    11.94800 211727.60233 211902.40434
    11.95200 204445.50056 207136.08638
    11.95600 195416.53248 196223.49667
    11.96000 185551.26928 187243.92111
    11.96400 175860.23250 177942.49267
    11.96800 167123.80823 166139.85444
    11.97200 159717.92459 157757.61557
    11.97600 153675.56287 150128.86217
    11.98000 148844.42740 145248.63770
    11.98400 145012.36319 139977.87047
    11.98800 141972.58540 140386.18342
    11.99200 139548.24399 136171.36390
    11.99600 137597.35305 136130.60944
    12.00000 136009.91016 133432.46974
    12.00400 134702.53405 130418.44575
    12.00800 133612.80646 132156.57531
    12.01200 132694.20380 132620.54972
    12.01600 131911.93821 128636.14823
    12.02000 131239.75254 130204.83818
    12.02400 130657.55777 127858.18448
    12.02800 130149.74770 127717.04160
    12.03200 129704.01569 130464.18928
    12.03600 129310.52651 125422.00693
    12.04000 128961.32848 127290.84617
    12.04400 128649.92974 124800.79819
    12.04800 128370.98595 127570.66596
    12.05200 128120.06519 123144.67360
    12.05600 127893.46759 124914.25647
    12.06000 127688.08580 126041.34974
    12.06400 127501.29538 124719.18397
    12.06800 127330.86815 126859.01840
    12.07200 127174.90314 125835.74987
    12.07600 127031.77124 126386.00847
    12.08000 126900.06996 128456.68035
    12.08400 126778.58732 130120.24160
    12.08800 126666.27203 129434.32724
    12.09200 126562.20908 129992.02693
    12.09600 126465.59931 127623.00237
    12.10000 126375.74295 127633.33360
    12.10400 126292.02591 125678.35865
    12.10800 126213.87135 126803.81714
    12.11200 126140.68013 125285.00872
    12.11600 126072.33014 127035.41171
    12.12000 126007.86558 125378.49200
    12.12400 125947.88838 128506.10033
    12.12800 125891.61217 126225.36110
    12.13200 125838.77665 128174.01307
    12.13600 125789.15099 126778.81440
    12.14000 125742.53082 125965.65609
    12.14400 125698.73528 127026.21920
    12.14800 125657.60499 126972.34187
    12.15200 125618.99990 130106.36844
    12.15600 125582.80066 129031.00800
    12.16000 125548.99117 127570.18075
    12.16400 125518.08154 128856.53387
    12.16800 125490.28041 126025.02080
    12.17200 125462.79574 131150.29272
    12.17600 125437.32973 127545.53186
    12.18000 125413.84557 126009.52800
    12.18400 125392.31890 123739.71848
    12.18800 125372.73778 128332.12690
    12.19200 125355.10277 125897.55147
    12.19600 125339.42735 126275.24127
    12.20000 125325.73826 127298.11840
    12.20400 125314.07624 125848.68782
    12.20800 125304.49699 124233.33564
    12.21200 125297.07229 125261.18400
    12.21600 125291.89140 125232.53213
    12.22000 125289.06303 121718.96881
    12.22400 125288.71730 125070.11464
    12.22800 125291.00858 122119.52000
    12.23200 125296.11857 125560.08584
    12.23600 125304.26437 120997.00293
    12.24000 125315.78746 120513.48387
    12.24400 125331.47828 124228.29859
    12.24800 125351.72314 129279.26507
    12.25200 125374.94170 123387.78299
    12.25600 125402.93038 124967.69235
    12.26000 125436.23291 124079.15596
    12.26400 125475.48895 123834.79552
    12.26800 125521.45381 125070.52999
    12.27200 125575.02332 122858.02453
    12.27600 125637.26500 124613.29192
    12.28000 125709.45803 127475.20874
    12.28400 125793.14455 125247.04132
    12.28800 125890.19638 122371.65983
    12.29200 126002.90242 127308.01386
    12.29600 126134.08503 124326.36204
    12.30000 126287.25659 127924.47667
    12.30400 126466.83334 121297.28606
    12.30800 126678.43220 120822.00373
    12.31200 126929.28883 122825.32018
    12.31600 127228.85466 124560.59275
    12.32000 127589.66312 124353.95521
    12.32400 128028.60840 123385.18369
    12.32800 128568.88041 124948.14290
    12.33200 129242.98548 126609.32579
    12.33600 130097.62037 128787.60855
    12.34000 131201.73822 134386.08911
    12.34400 132660.01028 135573.28745
    12.34800 134634.88297 131863.33600
    12.35200 137380.32870 136532.24850
    12.35600 141284.04507 140221.53509
    12.36000 146883.31948 146054.01518
    12.36400 154723.45874 154621.25957
    12.36800 164835.27334 167594.88742
    12.37200 176009.54980 178745.83591
    12.37600 186026.12951 191594.83443
    12.38000 193237.73755 201686.08805
    12.38400 197429.55513 207118.87620
    12.38800 199020.14072 207836.54036
    12.39200 198296.03228 210262.06719
    12.39600 195203.40910 204205.29928
    12.40000 189423.37788 198117.63468
    12.40400 180762.30814 188819.87183
    12.40800 169911.75748 175062.58111
    12.41200 158815.41772 165459.66409
    12.41600 149547.00632 152089.71291
    12.42000 142818.25852 144431.14682
    12.42400 138192.88325 139328.85658
    12.42800 135014.36323 137057.74626
    12.43200 132776.67485 130809.33279
    12.43600 131146.79474 131864.75286
    12.44000 129926.45618 129889.72391
    12.44400 128974.63482 127866.88539
    12.44800 128230.35939 128094.71600
    12.45200 127630.16703 131426.44937
    12.45600 127138.03485 125644.01122
    12.46000 126728.72145 126382.84483
    12.46400 126384.04010 124565.07665
    12.46800 126090.58176 123717.48053
    12.47200 125838.26923 121964.89481
    12.47600 125619.40490 122216.95492
    12.48000 125428.02416 121968.81347
    12.48400 125259.44589 121488.10401
    12.48800 125109.95383 121167.34157
    12.49200 124976.56661 121144.11265
    12.49600 124856.86960 125764.78167
    12.50000 124748.89008 122899.27387
    12.50400 124651.00344 122501.04676
    12.50800 124561.86182 120889.56745
    12.51200 124480.33940 121331.48289
    12.51600 124405.48989 121722.31211
    12.52000 124336.51628 121920.77233
    12.52400 124272.91131 121697.57949
    12.52800 124214.27629 123896.22838
    12.53200 124159.24767 122973.37718
    12.53600 124107.87557 121835.33364
    12.54000 124059.81572 122686.55858
    12.54400 124014.74526 122321.15956
    12.54800 123972.38285 123983.49274
    12.55200 123932.48252 121238.84981
    12.55600 123894.82868 120585.56290
    12.56000 123859.23185 119756.10182
    12.56400 123825.52510 123263.58745
    12.56800 123793.56108 121862.14655
    12.57200 123763.20952 122622.44568
    12.57600 123734.35505 119712.54674
    12.58000 123706.89540 122965.22113
    12.58400 123680.73989 121580.62740
    12.58800 123655.80802 121925.31720
    12.59200 123632.02835 126676.69963
    12.59600 123609.33754 122072.94670
    12.60000 123587.67950 120855.11119
    12.60400 123567.00463 121236.69281
    12.60800 123547.26921 121997.78552
    12.61200 123528.43486 121761.12925
    12.61600 123510.46803 122123.83529
    12.62000 123493.33961 120604.53408
    12.62400 123477.02460 122270.96322
    12.62800 123461.50174 120561.71608
    12.63200 123446.75329 121401.07342
    12.63600 123432.76481 123022.90911
    12.64000 123419.52497 122706.22181
    12.64400 123407.02533 123667.09668
    12.64800 123395.26028 122333.89807
    12.65200 123384.22687 122613.34449
    12.65600 123373.92482 119965.88424
    12.66000 123364.35630 120986.38570
    12.66400 123355.53586 120942.95069
    12.66800 123347.67296 121919.73087
    12.67200 123340.96685 120118.82345
    12.67600 123334.48685 122204.48335
    12.68000 123328.23462 120432.19611
    12.68400 123320.34478 120896.69198
    12.68800 123315.78155 120907.46163
    12.69200 123305.43248 121138.05342
    12.69600 123303.03108 120439.15241
    12.70000 123301.52352 126134.57834
    12.70400 123300.94085 123077.27456
    12.70800 123301.31734 122539.14843
    12.71200 123302.69063 123784.44339
    12.71600 123305.10189 120280.26115
    12.72000 123308.59612 122701.61248
    12.72400 123313.22235 119704.78468
    12.72800 123319.03396 121487.77895
    12.73200 123326.08904 119159.89691
    12.73600 123334.45064 120906.69913
    12.74000 123344.18732 118255.33686
    12.74400 123355.37350 120745.31447
    12.74800 123368.09000 121012.43857
    12.75200 123382.42463 123273.37822
    12.75600 123398.47280 119050.71124
    12.76000 123416.33824 119883.26470
    12.76400 123436.13377 121114.50123
    12.76800 123457.98218 121913.64891
    12.77200 123482.01733 121354.47004
    12.77600 123508.38516 124170.49960
    12.78000 123537.24565 122384.66067
    12.78400 123568.72872 119699.38308
    12.78800 123602.87428 121281.53523
    12.79200 123640.26051 120076.69704
    12.79600 123680.39850 122068.10657
    12.80000 123724.69127 120789.94231
    12.80400 123772.80777 122308.71942
    12.80800 123825.05370 119893.27111
    12.81200 123881.76660 124565.67103
    12.81600 123943.32014 123058.00943
    12.82000 124010.12858 123580.59469
    12.82400 124082.65216 122302.39877
    12.82800 124161.40338 125081.04509
    12.83200 124246.95411 123874.01359
    12.83600 124339.94410 123039.25742
    12.84000 124441.09077 125887.06612
    12.84400 124551.20074 123612.75247
    12.84800 124671.18335 125411.31731
    12.85200 124802.06672 124611.77208
    12.85600 124945.01682 124598.46070
    12.86000 125101.36027 123027.95611
    12.86400 125272.61117 124245.76484
    12.86800 125460.50399 125827.75642
    12.87200 125667.03304 125771.87295
    12.87600 125894.50012 123278.54143
    12.88000 126145.57309 123315.26338
    12.88400 126423.35786 124491.09111
    12.88800 126731.48697 127064.63070
    12.89200 127074.22975 125466.57969
    12.89600 127456.63153 126165.29529
    12.90000 127884.68837 127797.44893
    12.90400 128365.57208 125627.69279
    12.90800 128907.92103 125588.77271
    12.91200 129522.22296 126693.13268
    12.91600 130221.32417 128912.25228
    12.92000 131021.11818 127675.63664
    12.92400 131941.48611 129337.66578
    12.92800 133007.58936 132120.13327
    12.93200 134251.65417 132911.50866
    12.93600 135715.43133 130342.44568
    12.94000 137453.55681 133043.07539
    12.94400 139538.07080 135182.79907
    12.94800 142064.33422 139656.38922
    12.95200 145158.44366 141377.81850
    12.95600 148985.90156 145241.33940
    12.96000 153760.51737 150870.13852
    12.96400 159750.78147 154043.56673
    12.96800 167277.13354 164149.61763
    12.97200 176685.82217 174727.50000
    12.97600 188273.93952 187479.26209
    12.98000 202139.22346 200255.16001
    12.98400 217973.65432 218688.46900
    12.98800 234924.54880 233449.56260
    12.99200 251675.99184 253829.97628
    12.99600 266692.34526 271541.79750
    13.00000 278445.91656 287467.15819
    13.00400 285728.82944 298795.22466
    13.00800 287968.75123 302523.31955
    13.01200 285156.37508 300419.31098
    13.01600 277581.90395 293887.42150
    13.02000 265782.30803 284487.75442
    13.02400 250661.35961 265679.05916
    13.02800 233511.58579 251238.85163
    13.03200 215828.17943 226124.05255
    13.03600 199080.08049 206508.60026
    13.04000 184465.87294 187120.98854
    13.04400 172564.73902 177071.10526
    13.04800 163262.84262 164960.47647
    13.05200 156085.67468 155704.84497
    13.05600 150524.83818 149290.33058
    13.06000 146164.81307 145783.38146
    13.06400 142695.58326 143177.69233
    13.06800 139893.09976 140119.65637
    13.07200 137596.53596 137530.41334
    13.07600 135689.71953 138914.99920
    13.08000 134087.68484 135233.19220
    13.08400 132727.39558 132668.86873
    13.08800 131561.41013 132192.67769
    13.09200 130553.51962 130115.76478
    13.09600 129675.70403 130433.73932
    13.10000 128905.98825 129466.59509
    13.10400 128226.91871 130707.96422
    13.10800 127624.46989 126959.88531
    13.11200 127087.25116 126865.92648
    13.11600 126605.92471 126899.63454
    13.12000 126172.77177 128179.01965
    13.12400 125781.36393 124953.65823
    13.12800 125426.31173 126825.55932
    13.13200 125103.06895 124531.86521
    13.13600 124807.77942 124721.45335
    13.14000 124537.15454 125888.45240
    13.14400 124288.37675 124973.11182
    13.14800 124059.02067 126493.68700
    13.15200 123846.98940 125379.38471
    13.15600 123650.46288 123775.41427
    13.16000 123467.85532 123046.54506
    13.16400 123297.77984 124151.62498
    13.16800 123139.01945 122872.62973
    13.17200 122990.50296 123170.43380
    13.17600 122851.28435 124201.73069
    13.18000 122720.59417 127718.17081
    13.18400 122599.13188 122337.24146
    13.18800 122488.16172 121097.24108
    13.19200 122380.91582 120073.24988
    13.19600 122277.36955 122588.21853
    13.20000 122179.28288 121350.81875
    13.20400 122086.22972 121997.55351
    13.20800 121997.82636 122241.37478
    13.21200 121913.72683 119379.27358
    13.21600 121833.61856 120317.45371
    13.22000 121757.21860 121300.29072
    13.22400 121684.27058 122494.69883
    13.22800 121614.54179 122809.88569
    13.23200 121547.82086 121794.12387
    13.23600 121483.91548 120193.37547
    13.24000 121422.65055 121284.61205
    13.24400 121363.86652 121610.37151
    13.24800 121307.41790 121213.31995
    13.25200 121253.17197 118670.92013
    13.25600 121201.00766 121600.93980
    13.26000 121150.81449 121685.01654
    13.26400 121102.49168 120194.90881
    13.26800 121055.94730 121725.14235
    13.27200 121011.09765 119361.12359
    13.27600 120967.86660 119422.31705
    13.28000 120926.18498 118724.63249
    13.28400 120885.99011 120558.00921
    13.28800 120847.22541 118271.67136
    13.29200 120809.83997 123982.57094
    13.29600 120773.78820 123285.24737
    13.30000 120739.02960 122715.93076
    13.30400 120705.53415 122790.08773
    13.30800 120673.46309 122334.76032
    13.31200 120643.10957 122573.78858
    13.31600 120613.65934 121831.57962
    13.32000 120584.92556 122175.66244
    13.32400 120557.33631 121601.41545
    13.32800 120530.88129 123782.81399
    13.33200 120505.55420 121083.32044
    13.33600 120481.35271 121859.70546
    13.34000 120458.27919 119760.06976
    13.34400 120436.26002 121939.36597
    13.34800 120414.68576 120675.86068
    13.35200 120393.91174 122980.32558
    13.35600 120371.36307 120520.76671
    13.36000 120354.14703 120686.08657
    13.36400 120338.15783 120524.59213
    13.36800 120323.44456 120265.20932
    13.37200 120311.19282 121525.14299
    13.37600 120303.32625 120176.93156
    13.38000 120294.81060 121552.26722
    13.38400 120285.59800 122222.34061
    13.38800 120277.90613 120995.12286
    13.39200 120271.88175 120085.56778
    13.39600 120267.69382 123177.52126
    13.40000 120265.08052 121660.27670
    13.40400 120264.30050 121748.38147
    13.40800 120265.50940 121155.01971
    13.41200 120268.83672 121179.94860
    13.41600 120274.42707 119960.24607
    13.42000 120282.44204 122422.43782
    13.42400 120293.06225 120023.50769
    13.42800 120306.48989 119679.94719
    13.43200 120322.95150 120326.19505
    13.43600 120342.70129 119124.95526
    13.44000 120366.02497 119308.67599
    13.44400 120393.24439 117763.81334
    13.44800 120424.72622 122317.57870
    13.45200 120460.92292 122335.41438
    13.45600 120502.32787 124416.81545
    13.46000 120549.27736 119671.79777
    13.46400 120602.49638 120697.17337
    13.46800 120662.67597 119158.69844
    13.47200 120730.60937 120533.40000
    13.47600 120807.21040 119157.61926
    13.48000 120893.53595 120308.16351
    13.48400 120990.81370 119778.36405
    13.48800 121100.47654 121355.44467
    13.49200 121224.20871 120496.45500
    13.49600 121364.02863 123181.75254
    13.50000 121522.33893 120973.73715
    13.50400 121701.82195 120494.97965
    13.50800 121905.86368 121195.45513
    13.51200 122138.65303 122635.29028
    13.51600 122405.23598 120529.29908
    13.52000 122711.83030 118296.71105
    13.52400 123066.14832 121666.25991
    13.52800 123477.81139 121802.31889
    13.53200 123958.88863 124890.78963
    13.53600 124524.96901 122124.66152
    13.54000 125195.65096 124668.43675
    13.54400 125993.15131 124236.67657
    13.54800 126949.27495 124484.80133
    13.55200 128102.82817 128480.72722
    13.55600 129502.49980 128708.15650
    13.56000 131208.92828 127971.96778
    13.56400 133296.41129 131618.40253
    13.56800 135853.27830 133748.59738
    13.57200 138978.73321 134555.18962
    13.57600 142772.74844 141407.90541
    13.58000 147316.09477 145477.41704
    13.58400 152640.56888 151667.36273
    13.58800 158685.09106 157114.22571
    13.59200 165211.16244 166065.88735
    13.59600 171680.15637 169631.05637
    13.60000 177275.19683 178351.27255
    13.60400 181252.99888 180017.70200
    13.60800 183279.55289 183269.63709
    13.61200 183360.66628 181438.28997
    13.61600 181623.37726 180262.54762
    13.62000 178211.50158 176189.00985
    13.62400 173285.33968 172854.35132
    13.62800 167084.01013 164869.74627
    13.63200 160048.88061 156670.80354
    13.63600 152904.15864 152368.87784
    13.64000 146443.37785 143890.87117
    13.64400 141119.23787 139021.47509
    13.64800 136950.50914 133598.69733
    13.65200 133742.13203 132036.80346
    13.65600 131268.73618 129752.04755
    13.66000 129341.65376 126934.75400
    13.66400 127818.85825 124431.71785
    13.66800 126597.78639 125680.40910
    13.67200 125604.99575 123172.63578
    13.67600 124788.73822 122013.56911
    13.68000 124109.28701 119924.28373
    13.68400 123544.90661 120331.62434
    13.68800 123071.62936 120164.83486
    13.69200 122673.99422 121775.04207
    13.69600 122340.32747 120178.34125
    13.70000 122061.85316 120796.08922
    13.70400 121832.08014 122325.45472
    13.70800 121646.38622 120071.50286
    13.71200 121501.75291 120280.91315
    13.71600 121396.62445 119571.12220
    13.72000 121330.88733 121253.06639
    13.72400 121306.30337 117376.49308
    13.72800 121326.55471 118911.77686
    13.73200 121394.99797 118331.14677
    13.73600 121518.47659 121667.33758
    13.74000 121707.65678 118853.82527
    13.74400 121975.24464 119726.02623
    13.74800 122337.06623 121520.07508
    13.75200 122811.84937 123034.23425
    13.75600 123420.07706 121455.77183
    13.76000 124180.97910 122973.50997
    13.76400 125106.36825 125934.54984
    13.76800 126190.50302 125019.65815
    13.77200 127397.84056 127135.42122
    13.77600 128655.51189 128422.27662
    13.78000 129859.79988 133473.59131
    13.78400 130898.48492 132277.08786
    13.78800 131677.16027 132854.67541
    13.79200 132134.42604 133174.81363
    13.79600 132244.81985 135905.01741
    13.80000 132025.52564 134562.55485
    13.80400 131536.50326 134043.20373
    13.80800 130791.17905 132363.82268
    13.81200 129724.83197 129256.10038
    13.81600 128424.48198 129882.84180
    13.82000 127062.24797 128472.13498
    13.82400 125754.79911 125509.04394
    13.82800 124570.39601 126313.47931
    13.83200 123534.60138 124751.27396
    13.83600 122633.27677 121515.39677
    13.84000 121808.43304 123253.50834
    13.84400 121014.55091 120623.12860
    13.84800 120351.17152 119593.21725
    13.85200 119867.62353 117947.73329
    13.85600 119498.28273 118207.68264
    13.86000 119194.96989 117990.38004
    13.86400 118938.71555 120417.85756
    13.86800 118716.15114 119382.22231
    13.87200 118525.75254 120870.97891
    13.87600 118351.06943 118082.32755
    13.88000 118202.83656 118209.86448
    13.88400 118070.21347 116893.89563
    13.88800 117950.62324 117463.79124
    13.89200 117842.02687 117462.55698
    13.89600 117742.78922 116778.81728
    13.90000 117651.85177 117966.67252
    13.90400 117573.34774 117953.81310
    13.90800 117525.70576 115888.78736
    13.91200 117501.06029 116526.55884
    13.91600 117434.94851 119862.07243
    13.92000 117372.20377 117412.88046
    13.92400 117313.14208 116469.31165
    13.92800 117257.37105 116860.58520
    13.93200 117204.55327 114808.47284
    13.93600 117154.39740 117359.44968
    13.94000 117106.65091 116066.50518
    13.94400 117061.09414 117537.20757
    13.94800 117017.53543 113975.04420
    13.95200 116975.80704 114839.94149
    13.95600 116935.76177 114068.50586
    13.96000 116897.27016 118525.49361
    13.96400 116860.21814 116592.66005
    13.96800 116824.50500 118148.60197
    13.97200 116790.04175 116218.19010
    13.97600 116756.74969 114773.38365
    13.98000 116724.55913 114460.17521
    13.98400 116693.40841 117017.78301
    13.98800 116663.24305 115368.14217
    13.99200 116634.01489 114144.14134
    13.99600 116605.68150 115327.76697
    14.00000 116578.20563 109615.86928
    14.00400 116551.55471 114136.73349
    14.00800 116525.70040 114583.44808
    14.01200 116500.61831 115532.08662
    14.01600 116476.28763 115740.89723
    14.02000 116452.69089 116400.97630
    14.02400 116429.81377 113982.95533
    14.02800 116407.64484 116470.02796
    14.03200 116386.17549 114143.65269
    14.03600 116365.39975 115108.33866
    14.04000 116345.31419 114647.64430
    14.04400 116325.91785 116050.90079
    14.04800 116307.21220 119910.38578
    14.05200 116289.20107 116738.86821
    14.05600 116271.89066 114678.10582
    14.06000 116255.28952 114937.86874
    14.06400 116239.40860 115782.31371
    14.06800 116224.26122 115291.41267
    14.07200 116209.86321 116664.88629
    14.07600 116196.23294 115066.63625
    14.08000 116183.39143 118370.15062
    14.08400 116171.36240 115037.78142
    14.08800 116160.17251 116231.46745
    14.09200 116149.85145 114038.45607
    14.09600 116140.43212 115477.25213
    14.10000 116131.95087 114768.03690
    14.10400 116124.44909 115701.21182
    14.10800 116118.05179 115192.80493
    14.11200 116112.90308 114686.16241
    14.11600 116108.66112 118145.99266
    14.12000 116105.55576 116211.53168
    14.12400 116103.69422 116814.17837
    14.12800 116103.14549 113468.36712
    14.13200 116103.98499 115204.66034
    14.13600 116106.29520 113575.37141
    14.14000 116110.16631 114504.90790
    14.14400 116115.69396 114662.84691
    14.14800 116122.94027 118819.36545
    14.15200 116132.01468 114484.81283
    14.15600 116142.85248 114528.51474
    14.16000 116156.21965 113957.14404
    14.16400 116171.90315 117711.05403
    14.16800 116190.07617 117367.55192
    14.17200 116210.92977 118412.83617
    14.17600 116234.58111 117427.82029
    14.18000 116260.61402 117009.37690
    14.18400 116290.47607 117090.60037
    14.18800 116321.55877 116429.17034
    14.19200 116359.50791 116053.03371
    14.19600 116401.80756 115202.46412
    14.20000 116448.85772 117621.07885
    14.20400 116501.10684 113739.41134
    14.20800 116559.08368 116952.96939
    14.21200 116623.38733 115792.39244
    14.21600 116694.52766 117088.99802
    14.22000 116773.30333 116066.42598
    14.22400 116860.54590 116420.03697
    14.22800 116957.19876 116558.72764
    14.23200 117064.34204 116958.66569
    14.23600 117183.21751 116074.39856
    14.24000 117315.25850 115937.74543
    14.24400 117462.12748 119708.54483
    14.24800 117625.76259 115563.67957
    14.25200 117808.43595 114312.48243
    14.25600 118012.82734 116562.07613
    14.26000 118242.11778 118414.06203
    14.26400 118500.10858 117884.14415
    14.26800 118791.37311 119356.64557
    14.27200 119121.45036 118829.56504
    14.27600 119497.09144 121029.72684
    14.28000 119926.57314 119854.98004
    14.28400 120420.09549 121722.59630
    14.28800 120990.27998 121150.15412
    14.29200 121652.78981 120859.65894
    14.29600 122427.08424 122999.63710
    14.30000 123337.31098 125822.04307
    14.30400 124413.31415 125042.63286
    14.30800 125691.69025 124880.88395
    14.31200 127216.73628 128131.46859
    14.31600 129040.97868 128615.84402
    14.32000 131224.67339 132754.69995
    14.32400 133833.18954 134567.15507
    14.32800 136930.60759 139340.75058
    14.33200 140567.87776 141163.82830
    14.33600 144766.53382 148114.54270
    14.34000 149507.40224 149740.36008
    14.34400 154747.85778 159372.89753
    14.34800 160501.53999 163827.12433
    14.35200 167018.18692 174203.43945
    14.35600 175166.15472 186764.26438
    14.36000 187485.07032 203697.84775
    14.36400 211012.56647 235512.87533
    14.36800 259076.65996 288687.95180
    14.37200 335106.27145 351967.45749
    14.37600 405542.42580 408017.22518
    14.38000 437766.49176 453844.01784
    14.38400 448383.18237 478275.68310
    14.38800 450134.13574 505531.18801
    14.39200 446777.93925 507719.88445
    14.39600 438228.75304 485543.40751
    14.40000 420432.50820 434415.71938
    14.40400 382556.96326 379716.28800
    14.40800 313293.11545 314862.21676
    14.41200 230500.24054 256744.30059
    14.41600 178183.54910 205071.83977
    14.42000 155228.67893 176093.23456
    14.42400 143750.40042 153926.20335
    14.42800 136927.44589 143854.71209
    14.43200 132415.36880 137261.94455
    14.43600 129219.60758 131996.69489
    14.44000 126844.93273 130713.11419
    14.44400 125016.14761 125564.29495
    14.44800 123568.36211 126629.44078
    14.45200 122396.79211 123689.47355
    14.45600 121431.67303 120814.38944
    14.46000 120624.77825 119497.68390
    14.46400 119941.72440 120656.44504
    14.46800 119357.35623 119418.07748
    14.47200 118852.86201 122413.10078
    14.47600 118413.90583 117162.78114
    14.48000 118029.38222 115586.77577
    14.48400 117690.56406 116234.20362
    14.48800 117390.50653 115409.54616
    14.49200 117123.62204 118102.48038
    14.49600 116885.37116 118759.08345
    14.50000 116672.03524 116933.96297
    14.50400 116480.54600 116566.64445
    14.50800 116308.35666 117521.16330
    14.51200 116153.34286 117492.69231
    14.51600 116013.72617 117428.63206
    14.52000 115888.01413 116356.32792
    14.52400 115774.95323 117891.31922
    14.52800 115673.49158 115861.54751
    14.53200 115582.74945 117500.23022
    14.53600 115501.99544 114853.05680
    14.54000 115430.62777 114311.48472
    14.54400 115368.15946 114496.15672
    14.54800 115314.20679 114841.53960
    14.55200 115268.48039 113259.83018
    14.55600 115230.77865 114593.54792
    14.56000 115200.98315 115825.49421
    14.56400 115179.05643 114497.66063
    14.56800 115165.04088 115899.11608
    14.57200 115159.05973 114891.44131
    14.57600 115161.31991 116118.25929
    14.58000 115172.11655 114272.67772
    14.58400 115191.83963 115950.47704
    14.58800 115220.98290 113319.79908
    14.59200 115260.15533 114606.20200
    14.59600 115310.09592 113491.99122
    14.60000 115371.69203 114912.23775
    14.60400 115446.00218 116271.13335
    14.60800 115534.28462 117776.85453
    14.61200 115638.03252 115086.25517
    14.61600 115759.01823 114253.72026
    14.62000 115899.34854 113632.32029
    14.62400 116061.53443 112353.90255
    14.62800 116248.57980 115781.84651
    14.63200 116464.09613 113750.29798
    14.63600 116712.45078 115219.58664
    14.64000 116998.96286 114496.19872
    14.64400 117330.27342 114618.45845
    14.64800 117714.60882 115079.86967
    14.65200 118161.49472 114681.48769
    14.65600 118684.02130 117123.89297
    14.66000 119298.44054 119674.28786
    14.66400 120025.56462 118235.65255
    14.66800 120892.22457 119751.19564
    14.67200 121933.17554 121118.21161
    14.67600 123193.62122 119035.15723
    14.68000 124732.56387 122538.46110
    14.68400 126627.16508 123163.02396
    14.68800 128978.07357 128319.89486
    14.69200 131915.03162 128314.03141
    14.69600 135600.28218 133553.49654
    14.70000 140225.28632 137541.89939
    14.70400 145996.21896 144491.13019
    14.70800 153093.86667 148423.00399
    14.71200 161594.28788 158523.91385
    14.71600 171323.82636 167681.92296
    14.72000 181676.33876 178907.61635
    14.72400 191576.68020 189470.17674
    14.72800 199820.53177 196409.86341
    14.73200 205527.41841 199141.10921
    14.73600 208336.17543 201555.67812
    14.74000 208225.44817 204621.72787
    14.74400 205295.42040 200142.33087
    14.74800 199689.38353 195985.49188
    14.75200 191661.55178 187591.12300
    14.75600 181750.57381 180343.30130
    14.76000 170911.86148 171219.57812
    14.76400 160349.80375 161792.81263
    14.76800 151047.16402 149962.35282
    14.77200 143433.34175 143949.27180
    14.77600 137457.67375 135644.94518
    14.78000 132847.12421 130798.12492
    14.78400 129294.19831 126774.35346
    14.78800 126534.14874 123858.26179
    14.79200 124361.43329 123365.03895
    14.79600 122624.03495 119340.97523
    14.80000 121212.20958 118824.94230
    14.80400 120047.47216 114658.04019
    14.80800 119073.49032 116931.35254
    14.81200 118249.01103 118533.88622
    14.81600 117543.86852 118613.28014
    14.82000 116935.20053 115246.38495
    14.82400 116405.46238 116109.50812
    14.82800 115940.97849 115471.95714
    14.83200 115530.94381 115037.70490
    14.83600 115166.72040 115237.16865
    14.84000 114841.34299 112460.07323
    14.84400 114549.34666 113623.38241
    14.84800 114286.24711 113428.70033
    14.85200 114047.05613 112722.83491
    14.85600 113829.21543 112416.34720
    14.86000 113629.94548 112799.19510
    14.86400 113446.32237 113504.47551
    14.86800 113270.91214 111266.33918
    14.87200 113098.21468 107812.99388
    14.87600 112896.46722 113002.35188
    14.88000 112763.85998 110315.29469
    14.88400 112639.77205 111337.15380
    14.88800 112523.70609 109230.23915
    14.89200 112414.87217 109989.55990
    14.89600 112312.56342 108351.32020
    14.90000 112216.15904 111661.30591
    14.90400 112125.11193 112307.29687
    14.90800 112038.93859 111030.92632
    14.91200 111957.21055 111664.76364
    14.91600 111879.54711 109365.73775
    14.92000 111805.60912 110722.08993
    14.92400 111735.09379 109450.17911
    14.92800 111667.73012 109221.69906
    14.93200 111603.27521 109775.31264
    14.93600 111541.51081 110745.36091
    14.94000 111482.24057 108698.58584
    14.94400 111425.28752 109182.38898
    14.94800 111370.49198 106781.36236
    14.95200 111317.70963 108688.75182
    14.95600 111266.80999 108009.97789
    14.96000 111217.67495 108430.43983
    14.96400 111170.19753 103855.81892
    14.96800 111124.28081 108728.88183
    14.97200 111079.83704 108737.98565
    14.97600 111036.78670 111428.59622
    14.98000 110995.05788 112246.93276
    14.98400 110954.58561 109576.69223
    14.98800 110915.31122 110070.23370
    14.99200 110877.18199 109133.31976
    14.99600 110840.15064 112450.10088
    15.00000 110804.17495 109398.23722
    15.00400 110769.21751 109642.95359
    15.00800 110735.24537 109771.38658
    15.01200 110702.22989 110762.28480
    15.01600 110670.14649 109231.88392
    15.02000 110638.97453 111661.45027
    15.02400 110608.69719 113109.51145
    15.02800 110579.30140 111396.65069
    15.03200 110550.77778 109509.24070
    15.03600 110523.12064 110164.42039
    15.04000 110496.32801 109590.38488
    15.04400 110470.40168 107975.80804
    15.04800 110445.34734 108970.20971
    15.05200 110421.17466 108121.54526
    15.05600 110397.92805 110424.50630
    15.06000 110378.10681 109499.47923
    15.06400 110367.99212 112536.93540
    15.06800 110358.59541 110871.83387
    15.07200 110339.39326 111392.96327
    15.07600 110321.23225 108882.40948
    15.08000 110304.15843 109811.85942
    15.08400 110288.22503 106664.29686
    15.08800 110273.49326 110248.15522
    15.09200 110260.03323 105407.18150
    15.09600 110247.92504 109590.83122
    15.10000 110237.26003 106645.12380
    15.10400 110228.14231 107876.65929
    15.10800 110220.69051 108052.48829
    15.11200 110215.03986 108242.10639
    15.11600 110211.34468 107556.13978
    15.12000 110209.78131 106630.24632
    15.12400 110210.55161 107957.23483
    15.12800 110213.88720 107055.20634
    15.13200 110220.05448 109227.71638
    15.13600 110229.36081 106466.34185
    15.14000 110242.16190 107823.12403
    15.14400 110258.87097 106463.56701
    15.14800 110279.96980 107491.37167
    15.15200 110306.02265 110300.69515
    15.15600 110337.69338 110600.98948
    15.16000 110375.76699 107705.66054
    15.16400 110421.17670 107261.43317
    15.16800 110475.03849 106237.78820
    15.17200 110538.69537 107015.53541
    15.17600 110613.77482 108837.23437
    15.18000 110702.26414 108217.86874
    15.18400 110806.61084 109360.01810
    15.18800 110929.85828 108502.52689
    15.19200 111075.83246 108417.56097
    15.19600 111249.40360 108717.89221
    15.20000 111456.80220 107509.24844
    15.20400 111705.67628 108321.55378
    15.20800 112006.43063 109837.96301
    15.21200 112371.37007 104673.77103
    15.21600 112830.50326 107776.14769
    15.22000 113406.32067 112954.53408
    15.22400 114137.96395 113817.08893
    15.22800 115079.03844 116780.35748
    15.23200 116301.06335 115539.97764
    15.23600 117894.68126 120802.25852
    15.24000 119963.14388 118028.46582
    15.24400 122596.16734 122888.29098
    15.24800 125808.46696 126020.04553
    15.25200 129450.85989 131077.49760
    15.25600 133169.24499 133776.70768
    15.26000 136505.72171 139494.83333
    15.26400 139087.95384 140236.56150
    15.26800 140727.13080 144710.61092
    15.27200 141371.29043 144497.59239
    15.27600 141017.17268 147039.84528
    15.28000 139666.71825 144552.24136
    15.28400 137348.58149 141564.80032
    15.28800 134194.44364 135858.71086
    15.29200 130512.56534 131284.98403
    15.29600 126749.63899 128434.94703
    15.30000 123317.47067 124321.73811
    15.30400 120439.66484 122341.74867
    15.30800 118146.95651 119464.36182
    15.31200 116364.40013 117934.90113
    15.31600 114987.81531 115833.88738
    15.32000 113920.50630 115066.49201
    15.32400 113084.34097 111308.06421
    15.32800 112420.05674 112810.21779
    15.33200 111884.13109 110441.78385
    15.33600 111445.08264 109936.40522
    15.34000 111080.21042 109956.85169
    15.34400 110773.04747 110083.83680
    15.34800 110511.50492 107873.15530
    15.35200 110286.57380 108424.11752
    15.35600 110091.43455 106225.67460
    15.36000 109920.84882 108866.30884
    15.36400 109770.74172 107740.50426
    15.36800 109637.91178 106750.33925
    15.37200 109519.82710 109596.92705
    15.37600 109414.48098 107505.24155
    15.38000 109320.28974 107819.74204
    15.38400 109236.02197 108078.69649
    15.38800 109160.75312 107470.06017
    15.39200 109093.84316 106117.65491
    15.39600 109034.93842 108947.73110
    15.40000 108984.00395 107470.29846
    15.40400 108941.40061 106857.78295
    15.40800 108908.03619 106954.40293
    15.41200 108885.65093 108032.76082
    15.41600 108877.37249 105490.41502
    15.42000 108888.88072 105507.40868
    15.42400 108931.12648 108020.21432
    15.42800 109026.87221 106147.98243
    15.43200 109223.83836 108340.17238
    15.43600 109604.31671 107857.41347
    15.44000 110225.46718 108635.48122
    15.44400 110959.67229 106327.98296
    15.44800 111540.70114 108786.31799
    15.45200 111866.81999 108022.03355
    15.45600 112007.10541 110899.51012
    15.46000 112033.58591 107136.69409
    15.46400 111971.84961 109267.18584
    15.46800 111806.08864 107448.04783
    15.47200 111475.31833 109858.65307
    15.47600 110903.39060 109629.01837
    15.48000 110128.74735 108235.55196
    15.48400 109397.90615 109108.31575
    15.48800 108899.91682 109577.60410
    15.49200 108609.46052 107032.26291
    15.49600 108435.71837 104710.21459
    15.50000 108321.97008 107729.72614
    15.50400 108240.95026 105561.76278
    15.50800 108179.59543 109865.88840
    15.51200 108131.07166 108650.75127
    15.51600 108091.45637 107901.74148
    15.52000 108058.34484 107225.12180
    15.52400 108030.19254 106942.16114
    15.52800 108005.97133 107967.93264
    15.53200 107984.98310 108767.14402
    15.53600 107966.81446 107773.73456
    15.54000 107951.19390 107204.71537
    15.54400 107937.46481 107391.61811
    15.54800 107925.69997 110436.33253
    15.55200 107915.77697 107696.35626
    15.55600 107907.61403 107244.44465
    15.56000 107901.16131 108160.10650
    15.56400 107896.39489 106755.91740
    15.56800 107893.31250 106305.73289
    15.57200 107891.93057 104848.66280
    15.57600 107892.28241 108264.25133
    15.58000 107894.41694 105972.54165
    15.58400 107898.39805 107363.15206
    15.58800 107904.30725 107356.86154
    15.59200 107912.69309 107688.71353
    15.59600 107924.52205 106953.42933
    15.60000 107937.22626 106737.59201
    15.60400 107951.93929 107832.23261
    15.60800 107969.21339 105516.10915
    15.61200 107989.23331 108802.53248
    15.61600 108012.20761 107279.40906
    15.62000 108038.37181 108998.61048
    15.62400 108067.99188 107434.92551
    15.62800 108101.36847 107834.85566
    15.63200 108138.84199 107457.77869
    15.63600 108180.79869 107714.32634
    15.64000 108227.69874 105845.41518
    15.64400 108280.11690 107148.73455
    15.64800 108338.55993 106979.02610
    15.65200 108403.51872 107234.21565
    15.65600 108475.89586 107277.73562
    15.66000 108556.57402 106781.07537
    15.66400 108646.58169 108423.08830
    15.66800 108747.12346 106348.97150
    15.67200 108859.61790 111208.69256
    15.67600 108985.74468 106682.89353
    15.68000 109127.50376 107070.47483
    15.68400 109287.29047 106854.76074
    15.68800 109467.99038 109679.59813
    15.69200 109673.10126 107467.27282
    15.69600 109906.88942 106847.21991
    15.70000 110174.59094 107093.74575
    15.70400 110482.66920 111164.99734
    15.70800 110839.13805 110190.50374
    15.71200 111253.96010 111067.26019
    15.71600 111739.51693 110901.29565
    15.72000 112311.13705 109905.54700
    15.72400 112987.63992 113278.64683
    15.72800 113791.80913 113368.98961
    15.73200 114750.61516 113873.59582
    15.73600 115894.83155 114079.73671
    15.74000 117257.35662 116995.95393
    15.74400 118869.04480 115020.79238
    15.74800 120750.37142 118690.77124
    15.75200 122897.70111 118574.04230
    15.75600 125265.92124 122709.98056
    15.76000 127754.99869 126409.32292
    15.76400 130211.38413 126524.62929
    15.76800 132448.98921 127459.40194
    15.77200 134283.33523 130854.54194
    15.77600 135566.32543 132451.07730
    15.78000 136206.77079 131819.84645
    15.78400 136170.02042 133521.77550
    15.78800 135468.64380 132321.49587
    15.79200 134159.44442 134575.21718
    15.79600 132347.69877 128927.34315
    15.80000 130186.87322 130102.06125
    15.80400 127862.84075 124377.45111
    15.80800 125563.25463 125715.60746
    15.81200 123442.32448 121543.49028
    15.81600 121596.59036 119270.22572
    15.82000 120064.10043 118338.59253
    15.82400 118834.80983 116653.36973
    15.82800 117874.47572 115394.24791
    15.83200 117154.06990 115314.51500
    15.83600 116641.33256 113997.86045
    15.84000 116309.24751 114389.60100
    15.84400 116136.13352 112649.31398
    15.84800 116107.34680 110863.11379
    15.85200 116213.79393 115428.58247
    15.85600 116451.82486 113524.89800
    15.86000 116823.08124 116882.32729
    15.86400 117335.03781 116375.50306
    15.86800 118001.33201 117881.86781
    15.87200 118837.89281 116590.17982
    15.87600 119871.68543 119137.23600
    15.88000 121137.34718 122067.51655
    15.88400 122678.38727 122394.13742
    15.88800 124548.91054 123138.96305
    15.89200 126814.62407 126423.49002
    15.89600 129553.15178 126724.45832
    15.90000 132852.75607 129555.68493
    15.90400 136807.89639 136209.70511
    15.90800 141509.30771 138874.93071
    15.91200 147026.37689 146113.01039
    15.91600 153382.65231 150602.70534
    15.92000 160534.13072 160645.82716
    15.92400 168374.33349 165427.13130
    15.92800 176801.90505 176448.62387
    15.93200 185882.99372 186567.94987
    15.93600 196115.60646 201067.57815
    15.94000 208733.72846 217494.15739
    15.94400 225698.94213 235453.23443
    15.94800 248270.83348 256131.37653
    15.95200 273798.03995 280622.46285
    15.95600 295419.26612 298524.57224
    15.96000 308139.10409 316248.57512
    15.96400 312407.85451 325079.31554
    15.96800 310609.82335 320844.45368
    15.97200 304278.56298 309201.22264
    15.97600 293542.93183 294168.86802
    15.98000 277200.81013 278400.33468
    15.98400 253663.43590 253468.34109
    15.98800 223828.40082 227896.72456
    15.99200 193454.23981 199931.34618
    15.99600 169226.82155 179542.34780
    16.00000 152778.72243 160007.94687
    16.00400 142027.74899 148283.60762
    16.00800 134784.86552 137649.56053
    16.01200 129652.99106 132803.60589
    16.01600 125839.08904 128181.37382
    16.02000 122896.62719 125989.91132
    16.02400 120561.73279 123288.59696
    16.02800 118667.87457 122887.81922
    16.03200 117104.02039 118907.22179
    16.03600 115793.14806 117927.55555
    16.04000 114680.19988 123059.05467
    16.04400 113724.83170 116573.02142
    16.04800 112896.84174 115953.13781
    16.05200 112173.16076 113588.29595
    16.05600 111535.60870 114803.31451
    16.06000 110970.70972 116277.96640
    16.06400 110465.92769 114184.31220
    16.06800 110014.40441 113547.05969
    16.07200 109607.52039 113298.56327
    16.07600 109239.19732 109724.71857
    16.08000 108904.37415 110529.74727
    16.08400 108598.80435 111960.92790
    16.08800 108318.90703 109050.70836
    16.09200 108061.64319 111380.18443
    16.09600 107824.41881 109296.93892
    16.10000 107605.00737 107395.13772
    16.10400 107401.48852 106804.09352
    16.10800 107212.19813 108670.95038
    16.11200 107035.68782 107739.05537
    16.11600 106870.69183 108352.64661
    16.12000 106716.09974 109489.66606
    16.12400 106570.93397 111444.95111
    16.12800 106434.33090 109247.65530
    16.13200 106305.52519 112083.03355
    16.13600 106183.83649 107730.73524
    16.14000 106068.65822 108255.31370
    16.14400 105959.44821 109167.39505
    16.14800 105855.72058 108074.32484
    16.15200 105757.03870 110182.12035
    16.15600 105663.00940 111783.72621
    16.16000 105573.27784 106677.07113
    16.16400 105487.52304 108967.55855
    16.16800 105405.45127 110639.84363
    16.17200 105326.68463 105336.85806
    16.17600 105251.14965 107265.64222
    16.18000 105178.09735 107288.25022
    16.18400 105108.36355 109278.70286
    16.18800 105041.20870 108792.21881
    16.19200 104976.46522 109295.48324
    16.19600 104913.97938 107576.18567
    16.20000 104853.60994 108719.83868
    16.20400 104795.22693 107202.59171
    16.20800 104738.71066 107903.47827
    16.21200 104683.95068 107037.88892
    16.21600 104630.84505 108906.06829
    16.22000 104579.29947 108328.78083
    16.22400 104529.22665 106742.75284
    16.22800 104480.54570 106083.46499
    16.23200 104434.00312 106601.01042
    16.23600 104390.96526 107013.58071
    16.24000 104347.65012 106082.47324
    16.24400 104312.22799 108977.10287
    16.24800 104279.41359 107192.52048
    16.25200 104237.83256 108279.48712
    16.25600 104197.21822 105167.71045
    16.26000 104157.52513 105608.38318
    16.26400 104118.71088 106189.46205
    16.26800 104080.73584 106873.95267
    16.27200 104043.56299 106856.70249
    16.27600 104007.15771 106627.31892
    16.28000 103971.46017 107277.09713
    16.28400 103936.16193 104325.80323
    16.28800 103901.47045 108266.15433
    16.29200 103864.67603 107420.34843
    16.29600 103830.87440 107516.43863
    16.30000 103792.08761 104935.33967
    16.30400 103760.30747 105457.98952
    16.30800 103729.08657 104908.13751
    16.31200 103698.40582 105973.09629
    16.31600 103668.24741 106419.32848
    16.32000 103638.59464 106229.19185
    16.32400 103609.43193 104906.52901
    16.32800 103580.74477 104606.57194
    16.33200 103552.51963 106786.04077
    16.33600 103524.74388 106152.00834
    16.34000 103497.40582 105617.16996
    16.34400 103470.49463 107813.91367
    16.34800 103444.00029 106671.18710
    16.35200 103417.91355 104355.12036
    16.35600 103392.22594 106774.99195
    16.36000 103366.92972 104614.82219
    16.36400 103342.01786 105487.80682
    16.36800 103317.48399 103835.11971
    16.37200 103293.32245 106949.15353
    16.37600 103269.52821 105624.40124
    16.38000 103246.09689 105286.79542
    16.38400 103223.02474 104867.99431
    16.38800 103200.30863 103202.17078
    16.39200 103177.94606 104594.72396
    16.39600 103155.93514 104154.83201
    16.40000 103134.27460 106390.92896
    16.40400 103112.96381 100783.06036
    16.40800 103092.68654 104551.64905
    16.41200 103074.63889 106320.43419
    16.41600 103054.40958 109825.93025
    16.42000 103034.51592 107417.87036
    16.42400 103014.97837 107440.19178
    16.42800 102995.80020 106969.19265
    16.43200 102976.98538 108817.66850
    16.43600 102958.53865 107688.81789
    16.44000 102940.46548 107784.33514
    16.44400 102922.77216 106391.53131
    16.44800 102905.46584 107444.25059
    16.45200 102888.55453 108296.74085
    16.45600 102872.04718 106527.30168
    16.46000 102855.95372 106486.10632
    16.46400 102840.28514 105324.47828
    16.46800 102825.05352 108332.30082
    16.47200 102810.26802 106715.69070
    16.47600 102795.85101 105763.25218
    16.48000 102781.50899 104600.39195
    16.48400 102766.65322 106593.38354
    16.48800 102753.84007 107288.91366
    16.49200 102741.56435 107444.42218
    16.49600 102729.84846 107951.63460
    16.50000 102718.71678 106641.63876
    16.50400 102708.19584 105278.40639
    16.50800 102698.31448 106473.48378
    16.51200 102689.10410 105228.47529
    16.51600 102680.59882 105654.53646
    16.52000 102672.83584 109353.78551
    16.52400 102665.85564 105605.00219
    16.52800 102659.70236 106282.20117
    16.53200 102654.42409 105165.71195
    16.53600 102650.07336 106692.45175
    16.54000 102646.70759 105428.51883
    16.54400 102644.38951 106978.06470
    16.54800 102643.18787 106806.37109
    16.55200 102643.17799 105203.73986
    16.55600 102644.44257 104331.48958
    16.56000 102647.07250 106595.37354
    16.56400 102651.16786 103327.29031
    16.56800 102656.83896 107869.18497
    16.57200 102664.20766 106510.97041
    16.57600 102673.40876 106064.53113
    16.58000 102684.59164 106195.30934
    16.58400 102697.92224 104262.68679
    16.58800 102713.58518 108507.35824
    16.59200 102731.78631 105289.63532
    16.59600 102752.75571 106652.22441
    16.60000 102776.81788 105179.31452
    16.60400 102804.43470 107260.14845
    16.60800 102835.43547 105462.07792
    16.61200 102870.39734 106166.22389
    16.61600 102909.78470 104423.17591
    16.62000 102954.07038 104569.27894
    16.62400 103003.79284 104652.28948
    16.62800 103059.56765 104942.41559
    16.63200 103122.10076 105384.43895
    16.63600 103192.20501 105124.17431
    16.64000 103270.82050 105960.07231
    16.64400 103359.03919 104003.96165
    16.64800 103458.13616 106725.44660
    16.65200 103569.60880 102198.95447
    16.65600 103695.22623 104168.14371
    16.66000 103837.09268 107090.56937
    16.66400 103997.72904 108896.67511
    16.66800 104180.17709 108302.97901
    16.67200 104388.14793 109572.98311
    16.67600 104626.36629 109106.69764
    16.68000 104900.59913 109414.24780
    16.68400 105216.69276 109079.51123
    16.68800 105583.83660 109891.63960
    16.69200 106012.66057 109262.41675
    16.69600 106516.36106 109696.44691
    16.70000 107111.26340 110622.29627
    16.70400 107817.43142 111118.98182
    16.70800 108659.26822 111284.91311
    16.71200 109665.98010 111411.90611
    16.71600 110871.65224 114331.86167
    16.72000 112314.44838 114629.36756
    16.72400 114034.08432 117397.34040
    16.72800 116066.26335 116462.73242
    16.73200 118432.52032 117676.44375
    16.73600 121124.70549 120516.39496
    16.74000 124086.26493 124915.20275
    16.74400 127197.25385 127272.54045
    16.74800 130273.05378 128277.83235
    16.75200 133083.64788 132625.41744
    16.75600 135391.14756 135075.20036
    16.76000 136995.49156 138244.01226
    16.76400 137768.68420 137473.40074
    16.76800 137657.51421 138589.99653
    16.77200 136673.90504 138737.05745
    16.77600 134887.62855 137380.26071
    16.78000 132426.88618 133781.02257
    16.78400 129477.03615 131683.61694
    16.78800 126265.14512 127181.57088
    16.79200 123029.12433 125436.27166
    16.79600 119973.27686 122750.53952
    16.80000 117230.79745 120640.37870
    16.80400 114859.04120 115453.12482
    16.80800 112854.18298 115708.84111
    16.81200 111180.70158 112674.24039
    16.81600 109790.90014 111241.93851
    16.82000 108637.73857 109984.62608
    16.82400 107676.75819 112541.48099
    16.82800 106874.63828 110710.90061
    16.83200 106199.17236 108708.54500
    16.83600 105626.29986 110860.84168
    16.84000 105136.60309 107887.62263
    16.84400 104714.68999 104799.35428
    16.84800 104348.38986 102993.02438
    16.85200 104028.06916 105896.14791
    16.85600 103746.07171 104411.61050
    16.86000 103496.27591 109315.12834
    16.86400 103273.75090 105718.29136
    16.86800 103074.45961 105804.99377
    16.87200 102892.57631 106976.14003
    16.87600 102726.45873 107795.96827
    16.88000 102559.24342 107181.86944
    16.88400 102425.66113 107256.68249
    16.88800 102303.62492 108150.03252
    16.89200 102191.78312 107275.38523
    16.89600 102088.98207 108321.62837
    16.90000 101994.23212 107731.56972
    16.90400 101906.68086 109507.67591
    16.90800 101825.59088 107372.71021
    16.91200 101750.32204 107839.12503
    16.91600 101680.31697 105756.11570
    16.92000 101615.08875 105812.03626
    16.92400 101554.21095 104965.76030
    16.92800 101497.30933 106420.36825
    16.93200 101444.05473 104330.19142
    16.93600 101394.15713 107268.16102
    16.94000 101347.36067 106140.48201
    16.94400 101303.43943 106482.37270
    16.94800 101262.19379 106769.87097
    16.95200 101223.44734 106778.68835
    16.95600 101187.04428 105538.88190
    16.96000 101152.84721 104229.81498
    16.96400 101120.73514 104877.50307
    16.96800 101090.60187 104531.28524
    16.97200 101062.35464 106284.26805
    16.97600 101035.91283 105394.80085
    16.98000 101011.20704 103458.38870
    16.98400 100988.17819 102077.67689
    16.98800 100966.77674 102484.42655
    16.99200 100946.96216 104324.88480
    16.99600 100928.70246 104034.38390
    17.00000 100911.97371 101621.69555
    17.00400 100896.75986 104775.44797
    17.00800 100883.05249 105332.53918
    17.01200 100870.85069 104647.00293
    17.01600 100860.16102 103078.14467
    17.02000 100850.99763 104263.06267
    17.02400 100843.38234 105007.33458
    17.02800 100837.34488 104661.21920
    17.03200 100832.92322 104324.27033
    17.03600 100830.16403 101034.20813
    17.04000 100829.12313 101845.79964
    17.04400 100829.86619 104424.64373
    17.04800 100832.46951 104300.19121
    17.05200 100836.99400 104824.48917
    17.05600 100842.98707 104115.47573
    17.06000 100851.70896 102270.12583
    17.06400 100861.08821 101488.71360
    17.06800 100874.82972 100952.92402
    17.07200 100890.94255 102618.02933
    17.07600 100909.85087 106064.73387
    17.08000 100931.76814 106067.52710
    17.08400 100956.93609 105676.66293
    17.08800 100985.62897 102949.11120
    17.09200 101018.15849 103666.06133
    17.09600 101054.87976 95433.85613
    17.10000 101096.19857 104347.60053
    17.10400 101142.58031 97345.94347
    17.10800 101194.56067 104855.57813
    17.11200 101252.75901 102079.34732
    17.11600 101317.89477 101781.14160
    17.12000 101390.80788 99967.36320
    17.12400 101472.52027 103492.71307
    17.12800 101564.43717 103068.67147
    17.13200 101667.98189 105703.38720
    17.13600 101783.82839 96641.54400
    17.14000 101914.57549 99558.80800
    17.14400 102062.57328 99988.28800
    17.14800 102230.64882 102562.69600
    17.15200 102422.21032 101355.01600
    17.15600 102641.37125 100246.32533
    17.16000 102893.09561 98370.20795
    17.16400 103183.36273 104114.57813
    17.16800 103519.34487 106473.97440
    17.17200 103909.58300 97911.48267
    17.17600 104364.13290 100202.80320
    17.18000 104894.63165 99872.36364
    17.18400 105514.19451 105068.55200
    17.18800 106236.99351 98893.25193
    17.19200 107077.26206 106659.55733
    17.19600 108047.32962 100679.76427
    17.20000 109154.15266 104463.17569
    17.20400 110393.87842 108379.19520
    17.20800 111744.70088 110850.96934
    17.21200 113160.12528 116239.73867
    17.21600 114567.15359 115366.88830
    17.22000 115873.92361 111240.42880
    17.22400 116986.00261 111594.91389
    17.22800 117823.55418 116099.44000
    17.23200 118331.19949 114195.99414
    17.23600 118483.72094 125395.85920
    17.24000 118273.35510 114004.86804
    17.24400 117721.85856 118429.86084
    17.24800 116872.92090 113519.94881
    17.25200 115797.19139 112685.47413
    17.25600 114585.59762 108996.55772
    17.26000 113334.85106 109096.58544
    17.26400 112129.45192 114390.56960
    17.26800 111029.44694 117486.62383
    17.27200 110068.44319 109190.72141
    17.27600 109259.03351 107208.92989
    17.28000 108600.36705 110969.89013
    17.28400 108084.55920 107418.54386
    17.28800 107701.05089 104553.52013
    17.29200 107439.22973 101417.85337
    17.29600 107289.88669 102687.73554
    17.30000 107245.98592 105134.01653
    17.30400 107303.06481 106330.04159
    17.30800 107459.46599 102175.82351
    17.31200 107716.52508 103935.96533
    17.31600 108078.79856 104466.33644
    17.32000 108554.39607 106710.09011
    17.32400 109155.47615 105663.34897
    17.32800 109898.97323 107029.57783
    17.33200 110807.64870 111667.45247
    17.33600 111911.60213 112581.68220
    17.34000 113250.46370 111460.13367
    17.34400 114876.62561 112941.87021
    17.34800 116860.12037 113248.42768
    17.35200 119296.19650 120025.11033
    17.35600 122317.49048 121479.98344
    17.36000 126114.15626 123710.92476
    17.36400 130966.96303 129769.41656
    17.36800 137299.65554 137674.50022
    17.37200 145752.54265 146323.21784
    17.37600 157253.63404 157699.61943
    17.38000 173008.76914 175085.93560
    17.38400 194152.45031 193888.97422
    17.38800 220676.78344 218465.74729
    17.39200 249995.68873 242790.62277
    17.39600 277231.84178 273371.71118
    17.40000 298168.51250 290195.43958
    17.40400 311369.70504 304783.73870
    17.40800 317193.95977 309693.03876
    17.41200 316162.90128 310171.07574
    17.41600 308265.44859 303596.65742
    17.42000 293028.77957 284119.65550
    17.42400 270340.17624 261953.42297
    17.42800 241972.07309 242031.94043
    17.43200 212279.70359 217502.83727
    17.43600 186071.30802 190011.83652
    17.44000 165633.10291 168095.50459
    17.44400 150639.81226 150804.82999
    17.44800 139817.88952 139375.75519
    17.45200 131947.48457 131232.36199
    17.45600 126114.56821 126936.34712
    17.46000 121690.70989 120895.97891
    17.46400 118257.04070 120424.38284
    17.46800 115535.37190 114248.92175
    17.47200 113337.75445 111299.57503
    17.47600 111535.52113 108053.26106
    17.48000 110037.19062 106413.12853
    17.48400 108776.87820 107450.74622
    17.48800 107705.92060 109408.78390
    17.49200 106787.65588 104935.74903
    17.49600 105993.98500 101840.74811
    17.50000 105303.05186 101619.96431
    17.50400 104697.63838 100961.98718
    17.50800 104164.02869 101316.86990
    17.51200 103691.18720 102543.82639
    17.51600 103270.15544 108224.20827
    17.52000 102893.60152 101242.01327
    17.52400 102555.53355 98921.39941
    17.52800 102251.14629 98847.01244
    17.53200 101975.98645 101912.92874
    17.53600 101726.22350 98004.46659
    17.54000 101499.20898 97677.58192
    17.54400 101292.43430 97667.56018
    17.54800 101103.77033 96882.13574
    17.55200 100931.40629 98079.42305
    17.55600 100773.80142 95009.76240
    17.56000 100629.64594 96928.15708
    17.56400 100497.82980 98120.68508
    17.56800 100377.41818 99457.68322
    17.57200 100267.63196 98264.24765
    17.57600 100167.83305 100094.16199
    17.58000 100077.51388 95272.63059
    17.58400 99996.29065 99331.67101
    17.58800 99923.90053 98740.48996
    17.59200 99860.20265 101168.36731
    17.59600 99805.18348 97917.59755
    17.60000 99758.96687 98519.50071
    17.60400 99721.82956 98144.39272
    17.60800 99694.22290 97433.41315
    17.61200 99676.80160 97225.86343
    17.61600 99670.46094 99580.00112
    17.62000 99676.38346 101729.09084
    17.62400 99696.09607 100798.91385
    17.62800 99731.57791 96253.13970
    17.63200 99785.37374 95324.02852
    17.63600 99860.21507 97646.01398
    17.64000 99959.90391 94803.79900
    17.64400 100088.97336 95681.15532
    17.64800 100252.75523 97643.60356
    17.65200 100457.41894 97792.01999
    17.65600 100709.81119 97854.48556
    17.66000 101017.05449 100464.18070
    17.66400 101385.81565 95715.07464
    17.66800 101819.96212 96081.83206
    17.67200 102316.52926 100398.62302
    17.67600 102865.37724 96977.63464
    17.68000 103442.50183 100040.26692
    17.68400 104010.48759 101886.70868
    17.68800 104523.45303 101064.40208
    17.69200 104936.42379 100418.85567
    17.69600 105214.90806 103102.31304
    17.70000 105337.16711 104388.28332
    17.70400 105293.49383 103308.10894
    17.70800 105084.55118 104173.27430
    17.71200 104721.43651 100944.67592
    17.71600 104227.31174 100063.29787
    17.72000 103638.07779 102400.31469
    17.72400 102998.94937 103142.25846
    17.72800 102356.43602 97010.39209
    17.73200 101746.22263 97878.42857
    17.73600 101187.41021 97377.57604
    17.74000 100691.99539 97146.25963
    17.74400 100260.56068 95087.76189
    17.74800 99888.66335 95928.26522
    17.75200 99569.62909 94639.51751
    17.75600 99296.21856 97243.33803
    17.76000 99061.50446 97987.79592
    17.76400 98859.26941 101079.53678
    17.76800 98684.13594 96532.90094
    17.77200 98531.55765 95005.11879
    17.77600 98397.74551 95295.24692
    17.78000 98279.57002 98344.21553
    17.78400 98174.46066 94129.80029
    17.78800 98080.31255 93351.26149
    17.79200 97995.40444 95974.34027
    17.79600 97918.32865 92883.10491
    17.80000 97847.93229 95006.36641
    17.80400 97783.26860 93887.90338
    17.80800 97723.55697 94043.44232
    17.81200 97668.15050 95033.50113
    17.81600 97616.51001 97463.75140
    17.82000 97568.18313 94342.81757
    17.82400 97522.78778 97047.85858
    17.82800 97479.99913 93456.30108
    17.83200 97439.53931 93983.79122
    17.83600 97401.16919 95300.71409
    17.84000 97364.68315 95549.05711
    17.84400 97329.91562 100003.00342
    17.84800 97296.72123 94782.10508
    17.85200 97264.89153 95347.28937
    17.85600 97234.34912 92981.40410
    17.86000 97204.98718 96425.28636
    17.86400 97176.71114 94806.88836
    17.86800 97149.43706 97646.92258
    17.87200 97123.09024 98425.67915
    17.87600 97097.60405 93331.72902
    17.88000 97073.22124 93916.56092
    17.88400 97050.81563 93879.75939
    17.88800 97028.52526 95813.03900
    17.89200 97005.95224 95302.68732
    17.89600 96983.99707 93738.46545
    17.90000 96962.62476 94693.56330
    17.90400 96941.80369 96110.01601
    17.90800 96921.50528 99103.14179
    17.91200 96901.70369 98511.01903
    17.91600 96882.37552 91150.98724
    17.92000 96863.49961 97166.49294
    17.92400 96845.05678 95857.19370
    17.92800 96827.02969 94975.15161
    17.93200 96809.40264 92982.57130
    17.93600 96792.16147 94809.15127
    17.94000 96775.29340 92697.93570
    17.94400 96758.78697 95078.84192
    17.94800 96742.63186 91572.74580
    17.95200 96726.81888 92875.62052
    17.95600 96711.33989 92395.85219
    17.96000 96696.18767 92896.98455
    17.96400 96681.35593 91666.53657
    17.96800 96666.93684 96090.81335
    17.97200 96653.17789 94704.96922
    17.97600 96639.34989 96821.53324
    17.98000 96625.75538 96455.62069
    17.98400 96612.46206 95135.14022
    17.98800 96599.46829 95006.41966
    17.99200 96586.77312 92577.72290
    17.99600 96574.37627 95957.80298
    18.00000 96562.27817 94735.84582
    18.00400 96550.47991 94561.64595
    18.00800 96538.98325 94425.34719
    18.01200 96527.79066 96120.46033
    18.01600 96516.89830 95768.91622
    18.02000 96505.90578 95366.20991
    18.02400 96495.63135 94079.08257
    18.02800 96484.39796 96821.58624
    18.03200 96474.79415 95849.19361
    18.03600 96465.52473 89055.81448
    18.04000 96456.59762 94159.14801
    18.04400 96448.02171 96201.26851
    18.04800 96439.80689 99771.11767
    18.05200 96431.96411 98233.86923
    18.05600 96424.50743 97280.26638
    18.06000 96417.46070 96849.08407
    18.06400 96410.83602 96505.62432
    18.06800 96404.61556 99123.60714
    18.07200 96398.84119 96866.01795
    18.07600 96393.53238 95059.02500
    18.08000 96388.71050 95246.46993
    18.08400 96384.39902 95003.71902
    18.08800 96380.62373 95319.52317
    18.09200 96377.41295 96803.71015
    18.09600 96374.79785 95573.23463
    18.10000 96372.81276 96206.36243
    18.10400 96371.49551 95207.48748
    18.10800 96370.88787 96595.32187
    18.11200 96371.03608 95188.77359
    18.11600 96371.99133 97338.60398
    18.12000 96373.81044 98189.42093
    18.12400 96376.55664 96510.36608
    18.12800 96380.30039 93951.76643
    18.13200 96385.12048 98049.22178
    18.13600 96391.10517 94317.49335
    18.14000 96398.35368 97812.30368
    18.14400 96407.01833 95961.78856
    18.14800 96417.44552 97609.79887
    18.15200 96429.72339 97240.49367
    18.15600 96443.30722 97635.49047
    18.16000 96458.88846 101704.57316
    18.16400 96476.68292 96981.88679
    18.16800 96497.18558 99135.92121
    18.17200 96521.17670 96354.91369
    18.17600 96547.49938 97493.08945
    18.18000 96577.03864 95290.27757
    18.18400 96610.59674 95543.57735
    18.18800 96648.41783 95091.07277
    18.19200 96691.67125 96724.39299
    18.19600 96740.88388 95094.76512
    18.20000 96797.00022 95400.01439
    18.20400 96861.15388 93776.01450
    18.20800 96934.70634 92421.70245
    18.21200 97019.29114 95927.37596
    18.21600 97116.86310 95009.05711
    18.22000 97229.75077 98499.42888
    18.22400 97360.70883 95080.55001
    18.22800 97512.96443 97354.11295
    18.23200 97690.24709 97030.80273
    18.23600 97896.78365 99614.33724
    18.24000 98137.22869 97115.82052
    18.24400 98416.48424 97856.26105
    18.24800 98739.34985 100410.75356
    18.25200 99109.95170 97957.38789
    18.25600 99530.96980 98914.62227
    18.26000 100002.88073 97856.45758
    18.26400 100523.75859 98119.80181
    18.26800 101090.41105 100602.30581
    18.27200 101701.52068 99669.43217
    18.27600 102361.71748 100236.38524
    18.28000 103077.48490 101337.67082
    18.28400 103844.34761 98784.58708
    18.28800 104633.31305 101268.98402
    18.29200 105363.41401 104541.24719
    18.29600 105929.21786 109729.29058
    18.30000 106254.97611 107115.80784
    18.30400 106320.84329 107374.56713
    18.30800 106144.62867 104805.73401
    18.31200 105752.45307 104368.86598
    18.31600 105162.89391 107054.16275
    18.32000 104389.62866 106810.89486
    18.32400 103462.28461 104310.67548
    18.32800 102451.91190 101337.35885
    18.33200 101465.95259 102466.31472
    18.33600 100600.67622 100226.49556
    18.34000 99899.85881 102074.24116
    18.34400 99358.41237 99017.57711
    18.34800 98949.10853 99859.96012
    18.35200 98642.08775 99196.49495
    18.35600 98412.31657 98557.36618
    18.36000 98240.82288 96786.52444
    18.36400 98113.87462 99279.36569
    18.36800 98021.74303 99902.09565
    18.37200 97957.57652 102018.00696
    18.37600 97916.52610 98601.23042
    18.38000 97895.12562 99415.50898
    18.38400 97890.87650 99881.95226
    18.38800 97901.97664 98369.65140
    18.39200 97927.14331 99115.50799
    18.39600 97965.49509 97248.05006
    18.40000 98016.47170 102242.56991
    18.40400 98079.77829 99267.90832
    18.40800 98155.34747 101135.62511
    18.41200 98243.31384 99739.13981
    18.41600 98343.99865 101690.09744
    18.42000 98457.90142 101900.64642
    18.42400 98585.76183 99917.48196
    18.42800 98728.62084 97098.71098
    18.43200 98887.11374 98590.56700
    18.43600 99062.53778 99489.81926
    18.44000 99256.51665 100995.75526
    18.44400 99470.79883 97864.96608
    18.44800 99707.42770 100033.25406
    18.45200 99968.78665 100623.39918
    18.45600 100257.65618 97761.76964
    18.46000 100577.28450 101700.59191
    18.46400 100931.47580 99425.91185
    18.46800 101324.70201 100983.06224
    18.47200 101762.24318 100864.53449
    18.47600 102250.36692 101331.04754
    18.48000 102796.55604 100495.26018
    18.48400 103409.79872 102957.23484
    18.48800 104100.96117 101420.38855
    18.49200 104883.25882 105349.44983
    18.49600 105772.85358 105000.94940
    18.50000 106789.60619 106408.32822
    18.50400 107958.01138 108242.80320
    18.50800 109308.51094 107582.00347
    18.51200 110877.65410 108622.87592
    18.51600 112712.12033 107601.02374
    18.52000 114863.86604 113591.03867
    18.52400 117412.51853 115271.00162
    18.52800 120435.41789 118873.20293
    18.53200 124030.27431 120017.46083
    18.53600 128308.50918 126541.05306
    18.54000 133390.76170 127697.10894
    18.54400 139396.31708 135555.12969
    18.54800 146422.96384 139494.85636
    18.55200 154513.68715 147925.99307
    18.55600 163608.79140 155477.75206
    18.56000 173488.64560 159654.73054
    18.56400 183725.62412 172527.80799
    18.56800 193681.27412 180945.50173
    18.57200 202584.22192 187230.63906
    18.57600 209687.34406 194658.44341
    18.58000 214406.66254 202028.67630
    18.58400 216447.63425 202349.56778
    18.58800 215738.83227 205921.14283
    18.59200 212548.25680 202639.92810
    18.59600 207438.01495 197740.42778
    18.60000 200547.07649 191122.25726
    18.60400 191593.46373 184869.83038
    18.60800 181441.17050 173686.73278
    18.61200 171145.75496 166076.48788
    18.61600 161428.53432 156980.37380
    18.62000 152676.05300 150727.20399
    18.62400 144994.20792 140644.66316
    18.62800 138232.16452 135118.41358
    18.63200 131974.71865 126773.01710
    18.63600 126036.29948 123976.35313
    18.64000 121205.04937 123088.74015
    18.64400 117591.29624 113779.24447
    18.64800 114765.40150 108918.04889
    18.65200 112453.93787 108845.14567
    18.65600 110521.78243 112280.39044
    18.66000 108885.21241 109271.22423
    18.66400 107484.55034 107070.12605
    18.66800 106275.41766 104256.27723
    18.67200 105222.85599 105210.19714
    18.67600 104300.99744 102151.95166
    18.68000 103488.17311 103474.80266
    18.68400 102767.45386 104043.74182
    18.68800 102125.24223 103804.24059
    18.69200 101550.57291 104452.65568
    18.69600 101033.65691 99380.43517
    18.70000 100567.19382 100997.85007
    18.70400 100144.78343 95940.52090
    18.70800 99761.03144 99644.56565
    18.71200 99411.37843 101640.77958
    18.71600 99091.84369 98200.51584
    18.72000 98799.06342 97828.16458
    18.72400 98530.18138 99192.40222
    18.72800 98282.64077 98210.33127
    18.73200 98054.22931 100395.92437
    18.73600 97843.06666 97871.49448
    18.74000 97647.47918 98415.91300
    18.74400 97465.99682 96957.48994
    18.74800 97297.32454 95062.67031
    18.75200 97140.39053 97874.44096
    18.75600 96994.37931 96702.47125
    18.76000 96857.80283 98856.64634
    18.76400 96730.16457 95810.74968
    18.76800 96610.77236 95792.81917
    18.77200 96498.99192 97615.81319
    18.77600 96394.25728 99201.46604
    18.78000 96296.06268 95909.24812
    18.78400 96203.95600 98003.32588
    18.78800 96117.53311 96089.77849
    18.79200 96036.43310 98714.73715
    18.79600 95960.33391 96082.26864
    18.80000 95889.00297 98387.94709
    18.80400 95822.35261 99208.40282
    18.80800 95759.88339 97304.64432
    18.81200 95701.23674 94496.51350
    18.81600 95646.51571 95705.48483
    18.82000 95595.76346 93681.59332
    18.82400 95548.44181 92055.01145
    18.82800 95504.46281 95546.91356
    18.83200 95463.89262 95451.33635
    18.83600 95426.67108 95905.15715
    18.84000 95392.75919 97869.17951
    18.84400 95362.13941 96640.17332
    18.84800 95334.81627 97200.15456
    18.85200 95310.81737 95641.23402
    18.85600 95290.28907 94861.54486
    18.86000 95273.68791 93781.64244
    18.86400 95260.70000 95727.81336
    18.86800 95251.09246 96790.45476
    18.87200 95245.25586 93848.16044
    18.87600 95243.30631 95281.19106
    18.88000 95245.69775 96257.54712
    18.88400 95252.73887 91658.21001
    18.88800 95264.79870 97513.71725
    18.89200 95282.31696 94647.67010
    18.89600 95305.70786 91592.34665
    18.90000 95335.81329 91377.04491
    18.90400 95372.91142 94874.55112
    18.90800 95418.62583 96081.00816
    18.91200 95473.66926 96843.49760
    18.91600 95539.34490 94876.64530
    18.92000 95617.23266 93913.65805
    18.92400 95709.25297 94810.79792
    18.92800 95817.74484 93458.15841
    18.93200 95945.55878 97230.92019
    18.93600 96096.23383 96647.03209
    18.94000 96274.18012 94529.99947
    18.94400 96484.02066 95170.47510
    18.94800 96732.08405 97330.31976
    18.95200 97025.82234 94450.47231
    18.95600 97373.96639 94735.33427
    18.96000 97786.73667 98027.56257
    18.96400 98275.53605 97620.19968
    18.96800 98852.39749 97048.22797
    18.97200 99530.03194 97463.10197
    18.97600 100319.27815 99929.33253
    18.98000 101226.38063 102170.31572
    18.98400 102248.39219 104693.30325
    18.98800 103367.15111 105738.28805
    18.99200 104543.53500 103893.47950
    18.99600 105714.98119 101973.28275
    19.00000 106804.21681 98609.87859
    19.00400 107727.69069 103777.40923
    19.00800 108439.94150 106342.51305
    19.01200 108906.36072 106751.83227
    19.01600 109157.08047 105988.44808
    19.02000 109322.27894 104645.90123
    19.02400 109554.80734 107917.68557
    19.02800 109617.22423 107350.61794
    19.03200 109075.96661 108221.80618
    19.03600 108124.84298 108377.37054
    19.04000 107007.60065 109471.34112
    19.04400 105854.01001 104295.42598
    19.04800 104721.96684 103129.74681
    19.05200 103609.88698 102954.90615
    19.05600 102429.82544 103008.60836
    19.06000 101013.86461 99031.81203
    19.06400 99432.74285 97312.87194
    19.06800 98226.32066 93699.40469
    19.07200 97455.25246 99594.00677
    19.07600 96906.79414 93003.31784
    19.08000 96479.25207 93320.79483
    19.08400 96130.46008 93305.72524
    19.08800 95838.87856 93550.76890
    19.09200 95591.21333 95723.09662
    19.09600 95378.03481 95085.38658
    19.10000 95193.27453 95366.51278
    19.10400 95030.57296 94843.14164
    19.10800 94888.05032 93992.22021
    19.11200 94761.62809 93175.53648
    19.11600 94649.04498 94703.79355
    19.12000 94548.03031 95232.07269
    19.12400 94456.63321 91877.38898
    19.12800 94373.84103 94974.11901
    19.13200 94298.68200 94236.84026
    19.13600 94230.76851 94264.75069
    19.14000 94168.66225 91804.54899
    19.14400 94110.91691 92085.48216
    19.14800 94057.77211 91418.40708
    19.15200 94008.75394 92714.10537
    19.15600 93963.45547 92133.50772
    19.16000 93921.53289 93142.65536
    19.16400 93882.74065 91417.68397
    19.16800 93846.86372 92878.24266
    19.17200 93813.37789 91549.32774
    19.17600 93782.26832 90873.92918
    19.18000 93753.36258 91102.48616
    19.18400 93726.51107 92704.21352
    19.18800 93701.58413 94148.49703
    19.19200 93678.46988 91636.02662
    19.19600 93657.07236 92722.94276
    19.20000 93637.30989 94928.71596
    19.20400 93619.11381 92795.57907
    19.20800 93602.42746 92683.78329
    19.21200 93587.20523 91558.24601
    19.21600 93573.41202 93051.32990
    19.22000 93561.02263 92335.61981
    19.22400 93550.08755 91673.98855
    19.22800 93540.78390 95746.26891
    19.23200 93532.69993 93460.36182
    19.23600 93525.86733 98082.56150
    19.24000 93520.45427 94937.69462
    19.24400 93516.49271 95612.89487
    19.24800 93514.02501 90972.40176
    19.25200 93513.10466 90834.98030
    19.25600 93513.79712 92052.38206
    19.26000 93516.18087 92029.77556
    19.26400 93520.34880 90287.12513
    19.26800 93526.40971 89545.07862
    19.27200 93534.49041 89407.20232
    19.27600 93544.73796 92127.57828
    19.28000 93557.32256 93532.65602
    19.28400 93572.44096 95661.43644
    19.28800 93590.32070 95039.85863
    19.29200 93611.22497 92970.60996
    19.29600 93635.45878 93514.59542
    19.30000 93663.37625 94037.90032
    19.30400 93695.38944 93398.01818
    19.30800 93731.97925 92048.15161
    19.31200 93773.70847 93721.75985
    19.31600 93821.21316 94122.49201
    19.32000 93875.38991 94906.06390
    19.32400 93937.27451 95038.74840
    19.32800 94007.64722 91791.24807
    19.33200 94087.74283 90921.81777
    19.33600 94179.28734 91736.84957
    19.34000 94284.14367 95873.88179
    19.34400 94404.54661 95695.80063
    19.34800 94543.17641 94857.64883
    19.35200 94703.24097 98136.69981
    19.35600 94888.56258 95335.19661
    19.36000 95103.66253 92799.41720
    19.36400 95353.83212 93892.11102
    19.36800 95645.17041 94363.40686
    19.37200 95984.55637 99001.96011
    19.37600 96379.49917 95529.92891
    19.38000 96837.77454 97089.91845
    19.38400 97366.69882 96853.61342
    19.38800 97971.83184 96803.60878
    19.39200 98654.87911 99106.14990
    19.39600 99410.70275 98830.48403
    19.40000 100223.82854 100972.28094
    19.40400 101065.70167 99244.30777
    19.40800 101894.71723 100061.81550
    19.41200 102660.64774 98089.20176
    19.41600 103312.91277 101500.73695
    19.42000 103809.75061 101421.45767
    19.42400 104125.54984 105811.34522
    19.42800 104257.11945 103466.68637
    19.43200 104233.83312 106398.01757
    19.43600 104132.26797 103947.46638
    19.44000 104051.03664 107698.15754
    19.44400 103970.39332 104074.35783
    19.44800 103708.78611 105348.77343
    19.45200 103185.60528 102514.66906
    19.45600 102504.32336 101153.53500
    19.46000 101771.64201 98138.70660
    19.46400 101037.08449 99471.75932
    19.46800 100303.12026 100098.41397
    19.47200 99526.31400 96371.22817
    19.47600 98627.52696 95412.26012
    19.48000 97596.78681 95483.22349
    19.48400 96620.92586 97472.46931
    19.48800 95890.08594 99690.41001
    19.49200 95388.90802 98068.72379
    19.49600 95025.36986 98282.90354
    19.50000 94742.72972 96626.71443
    19.50400 94512.95657 99685.95101
    19.50800 94321.28909 96831.98136
    19.51200 94158.86879 96762.41336
    19.51600 94019.82760 94931.18051
    19.52000 93900.05697 95033.69382
    19.52400 93796.60871 94346.38358
    19.52800 93707.37624 94880.41451
    19.53200 93630.92052 96530.36928
    19.53600 93566.37823 96057.08566
    19.54000 93513.41447 95215.64944
    19.54400 93472.18561 94563.45634
    19.54800 93443.25327 95618.20814
    19.55200 93427.32922 96051.58280
    19.55600 93424.64925 93102.87620
    19.56000 93433.85814 94721.97569
    19.56400 93450.89012 97803.14664
    19.56800 93469.18410 95073.13211
    19.57200 93481.90550 95587.68956
    19.57600 93484.20481 98392.34155
    19.58000 93473.63800 96605.29962
    19.58400 93450.74720 97646.87220
    19.58800 93414.66109 97045.69838
    19.59200 93365.45386 98494.21784
    19.59600 93304.16302 96137.75586
    19.60000 93233.94872 96062.56528
    19.60400 93160.48601 94053.41365
    19.60800 93090.35029 95116.89637
    19.61200 93028.33550 95113.71140
    19.61600 92975.86781 92405.21942
    19.62000 92933.20733 93537.63828
    19.62400 92897.20661 94794.65442
    19.62800 92868.45988 92742.46834
    19.63200 92845.62408 93810.50037
    19.63600 92826.90005 95121.09726
    19.64000 92811.47209 96491.04233
    19.64400 92798.73655 95428.72415
    19.64800 92788.25303 98732.70953
    19.65200 92779.70171 95625.55415
    19.65600 92772.84955 93350.33787
    19.66000 92767.52525 92733.20090
    19.66400 92763.60178 94399.24977
    19.66800 92760.98433 93998.55549
    19.67200 92759.60231 95676.46752
    19.67600 92759.40378 99915.56747
    19.68000 92760.35170 96206.44755
    19.68400 92762.57165 94955.75639
    19.68800 92766.46252 93216.64982
    19.69200 92770.78219 97898.97630
    19.69600 92776.16542 97155.62274
    19.70000 92782.66073 93840.11978
    19.70400 92790.28357 93308.60570
    19.70800 92799.05560 94411.59957
    19.71200 92809.00433 92329.91486
    19.71600 92820.16316 95945.60732
    19.72000 92832.58672 93461.13951
    19.72400 92846.53368 94719.14697
    19.72800 92862.30101 92534.73468
    19.73200 92878.76152 95655.26885
    19.73600 92896.69012 97980.60676
    19.74000 92916.15839 94189.34132
    19.74400 92937.24559 96017.56055
    19.74800 92960.03923 95936.32055
    19.75200 92984.63594 97233.98562
    19.75600 93011.12049 100102.59542
    19.76000 93039.61122 96667.04633
    19.76400 93070.08208 95313.32348
    19.76800 93103.06456 96303.15771
    19.77200 93138.49831 96547.36856
    19.77600 93176.55471 97766.10170
    19.78000 93217.42260 97584.01811
    19.78400 93261.31041 98509.57508
    19.78800 93308.44979 98789.72691
    19.79200 93358.98745 97207.16800
    19.79600 93413.34705 96115.17785
    19.80000 93471.23003 94124.32404
    19.80400 93534.21517 96023.60117
    19.80800 93602.03807 93643.43367
    19.81200 93675.13240 97165.75885
    19.81600 93753.98346 96563.23669
    19.82000 93839.13567 96432.26959
    19.82400 93931.20135 99198.91733
    19.82800 94030.87111 99825.56044
    19.83200 94138.92616 100885.23456
    19.83600 94256.25389 98888.10312
    19.84000 94383.87178 98348.75678
    19.84400 94522.94329 97243.42492
    19.84800 94674.75552 96529.07050
    19.85200 94840.94093 95565.52369
    19.85600 95023.72584 96814.26977
    19.86000 95224.95923 98690.03434
    19.86400 95445.76662 97508.81028
    19.86800 95689.92793 95646.45262
    19.87200 95960.77948 99388.83839
    19.87600 96262.27216 97711.02636
    19.88000 96599.10036 97487.53442
    19.88400 96976.85746 100014.31918
    19.88800 97402.22314 100904.89111
    19.89200 97883.18994 100408.92119
    19.89600 98429.33760 102462.95243
    19.90000 99052.16912 101793.95767
    19.90400 99765.52449 103620.27263
    19.90800 100586.13157 101470.45748
    19.91200 101534.26383 103674.73583
    19.91600 102634.04746 105797.76628
    19.92000 103915.33135 106599.64510
    19.92400 105414.15368 106381.65682
    19.92800 107174.25005 107671.00134
    19.93200 109248.56539 108054.00520
    19.93600 111700.96566 107713.77875
    19.94000 114608.22586 113686.37274
    19.94400 118062.35996 118407.17966
    19.94800 122172.82400 121115.41480
    19.95200 127066.00298 124230.80831
    19.95600 132874.07422 133522.98397
    19.96000 139696.55512 140425.73252
    19.96400 147513.06665 150941.44223
    19.96800 156050.89757 156935.96140
    19.97200 164690.67698 166457.99292
    19.97600 172555.37238 178620.40282
    19.98000 178798.46221 181493.95793
    19.98400 182862.77401 183538.15226
    19.98800 184511.16620 182756.52663
    19.99200 183703.91763 182408.86874
    19.99600 180493.81093 181574.35366
    20.00000 175015.61515 177257.78014
    20.00400 167574.61474 172158.72817
    20.00800 158758.92926 163124.29713
    20.01200 149425.09260 151080.20271
    20.01600 140464.08242 143511.05107
    20.02000 132502.67348 134531.11555
    20.02400 125792.90741 129218.05990
    20.02800 120308.95277 122717.80640
    20.03200 115893.35214 118767.41482
    20.03600 112353.99379 112437.98509
    20.04000 109512.40024 108210.38232
    20.04400 107218.35221 106966.65546
    20.04800 105351.37341 105463.29836
    20.05200 103817.96842 104332.19196
    20.05600 102546.61160 101931.82268
    20.06000 101482.86980 102257.32908
    20.06400 100585.36017 101061.53208
    20.06800 99822.49002 101385.49920
    20.07200 99169.97072 101661.64723
    20.07600 98608.95895 100670.41401
    20.08000 98124.64122 101665.70352
    20.08400 97705.21097 98870.84425
    20.08800 97341.98324 99737.64377
    20.09200 97027.18434 98397.00745
    20.09600 96754.82372 98036.98064
    20.10000 96520.06389 97269.93902
    20.10400 96319.00352 96124.17501
    20.10800 96148.51544 96735.33866
    20.11200 96006.12612 96324.51810
    20.11600 95889.86774 99133.69595
    20.12000 95798.38306 96412.08434
    20.12400 95730.32566 99152.86102
    20.12800 95685.96681 97784.97604
    20.13200 95664.73315 96841.80349
    20.13600 95666.89470 96874.57508
    20.14000 95693.14420 97289.47870
    20.14400 95744.62832 99627.14973
    20.14800 95822.95157 96948.84840
    20.15200 95930.29245 98850.35596
    20.15600 96069.44748 96677.19046
    20.16000 96243.91476 97225.20820
    20.16400 96457.99941 96908.60357
    20.16800 96716.92349 100996.41081
    20.17200 97026.93635 97310.64460
    20.17600 97395.41231 97113.53065
    20.18000 97830.91222 99119.12513
    20.18400 98343.17049 98466.65415
    20.18800 98942.94623 98062.56550
    20.19200 99641.63939 98984.59537
    20.19600 100450.51263 98476.90708
    20.20000 101379.34271 99422.76757
    20.20400 102434.10919 102083.37007
    20.20800 103613.93094 103164.23677
    20.21200 104906.44209 104528.63563
    20.21600 106283.50859 106328.45509
    20.22000 107698.04109 111869.86289
    20.22400 109084.61679 111025.03846
    20.22800 110365.84592 115736.49281
    20.23200 111464.55494 112116.80884
    20.23600 112319.07740 113515.41405
    20.24000 112897.33372 114476.23163
    20.24400 113205.42084 113905.23562
    20.24800 113282.11122 115268.98695
    20.25200 113158.61330 116041.70421
    20.25600 112794.85406 118267.23151
    20.26000 112107.71590 114455.16134
    20.26400 111093.02804 111871.17545
    20.26800 109842.64876 112495.26734
    20.27200 108467.84407 111354.39963
    20.27600 107046.62852 111288.48132
    20.28000 105609.59025 106422.10889
    20.28400 104146.10703 103539.55325
    20.28800 102638.80439 100984.04352
    20.29200 101134.32347 99258.12620
    20.29600 99763.93277 99975.42222
    20.30000 98630.77425 98555.08227
    20.30400 97736.43620 97523.72790
    20.30800 97029.80758 96199.20847
    20.31200 96459.87695 97056.97446
    20.31600 95989.86679 96941.90841
    20.32000 95595.10351 95304.45779
    20.32400 95258.93015 98702.97471
    20.32800 94969.67189 99220.66371
    20.33200 94718.77758 96346.92386
    20.33600 94499.75273 94641.34780
    20.34000 94307.53664 96335.85330
    20.34400 94138.11386 93487.30325
    20.34800 93988.25385 95314.22125
    20.35200 93855.32824 90534.60494
    20.35600 93737.17766 90554.75958
    20.36000 93632.01361 93343.93499
    20.36400 93538.34420 95387.94436
    20.36800 93454.91804 96915.44396
    20.37200 93380.68050 90755.83280
    20.37600 93314.73990 94703.04665
    20.38000 93256.34048 91746.09984
    20.38400 93204.84115 94886.09239
    20.38800 93159.69800 93471.21352
    20.39200 93120.45031 95976.28292
    20.39600 93086.70935 94172.92410
    20.40000 93058.20546 94597.66148
    20.40400 93035.02679 88206.83491
    20.40800 93017.08998 93254.37806
    20.41200 93003.20873 92510.53851
    20.41600 92993.28933 93404.99712
    20.42000 92987.47431 94535.96457
    20.42400 92985.85879 90832.39296
    20.42800 92988.40771 93275.13758
    20.43200 92995.11752 93126.82079
    20.43600 93006.01560 93176.16245
    20.44000 93021.16021 86785.44766
    20.44400 93040.64094 93979.62673
    20.44800 93064.57967 93498.03298
    20.45200 93093.13201 95156.36405
    20.45600 93126.48937 93368.24280
    20.46000 93164.88146 92015.05777
    20.46400 93208.57954 91467.32184
    20.46800 93257.90056 96066.91015
    20.47200 93313.21189 96718.74571
    20.47600 93374.93721 92892.85042
    20.48000 93443.56334 95530.04770
    20.48400 93519.64879 93472.51705
    20.48800 93603.83369 94476.15778
    20.49200 93696.85175 93573.33340
    20.49600 93799.54478 93079.60800
    20.50000 93912.88027 91484.00398
    20.50400 94037.97250 94424.07057
    20.50800 94176.10861 95364.63040
    20.51200 94328.78051 94917.58843
    20.51600 94497.73215 95343.99388
    20.52000 94685.02113 94746.92301
    20.52400 94892.97040 96646.71133
    20.52800 95124.38481 97205.72580
    20.53200 95382.61903 95781.87723
    20.53600 95671.63955 96204.64571
    20.54000 95996.19173 97070.19166
    20.54400 96361.97421 97426.89785
    20.54800 96775.84946 94080.03629
    20.55200 97246.08082 94626.95180
    20.55600 97782.49516 96167.88307
    20.56000 98396.89507 96060.57044
    20.56400 99104.73799 98722.92773
    20.56800 99922.68705 97372.07989
    20.57200 100871.97560 100534.68861
    20.57600 101974.43346 105998.06386
    20.58000 103257.08109 105516.92042
    20.58400 104750.66781 103443.29073
    20.58800 106487.42224 104237.27666
    20.59200 108499.68508 107692.80375
    20.59600 110815.99284 109245.76752
    20.60000 113454.86748 111308.83246
    20.60400 116415.58863 111335.47014
    20.60800 119666.36881 117169.03073
    20.61200 123132.15800 122267.36165
    20.61600 126686.82506 127376.10516
    20.62000 130156.07120 130191.71212
    20.62400 133335.70144 131223.74237
    20.62800 136023.80890 132424.31531
    20.63200 138058.41616 139420.65908
    20.63600 139349.81900 139739.69837
    20.64000 139897.93268 142046.07830
    20.64400 139773.21370 144442.73615
    20.64800 139017.95136 141118.83941
    20.65200 137535.26338 137248.27919
    20.65600 135239.10295 134975.08096
    20.66000 132287.86219 131955.90678
    20.66400 128967.80330 128884.59684
    20.66800 125529.02640 127749.51556
    20.67200 122129.30725 120748.29358
    20.67600 118824.60928 118802.34365
    20.68000 115590.27702 113983.10546
    20.68400 112409.88146 112255.55979
    20.68800 109419.52826 104760.03548
    20.69200 106873.32726 106099.58247
    20.69600 104861.04080 105961.88256
    20.70000 103293.11835 105092.46137
    20.70400 102056.95820 102880.58455
    20.70800 101069.41715 102358.21784
    20.71200 100274.72596 102758.57049
    20.71600 99635.07753 103806.95313
    20.72000 99123.42508 106079.66418
    20.72400 98719.02193 97806.61104
    20.72800 98404.68953 97357.24447
    20.73200 98164.96941 100664.84865
    20.73600 97984.81169 100418.09055
    20.74000 97848.79560 99557.70892
    20.74400 97740.99368 101420.73967
    20.74800 97645.50367 97495.02610
    20.75200 97547.45784 98291.68036
    20.75600 97434.14452 98199.66871
    20.76000 97295.90634 98988.05179
    20.76400 97125.91748 98657.08309
    20.76800 96923.18176 100237.02077
    20.77200 96685.70293 97407.22876
    20.77600 96423.28054 97180.00735
    20.78000 96140.78844 97324.39465
    20.78400 95847.46614 99593.59041
    20.78800 95553.03380 98202.47020
    20.79200 95266.36565 99834.65353
    20.79600 94994.50778 96786.77950
    20.80000 94742.24879 93885.09827
    20.80400 94512.20903 94662.97154
    20.80800 94305.25246 92061.03659
    20.81200 94121.00257 93887.24580
    20.81600 93958.31400 95951.91175
    20.82000 93815.63646 96737.86350
    20.82400 93691.26530 94176.73715
    20.82800 93583.49974 96018.55789
    20.83200 93490.73480 93190.32018
    20.83600 93411.51002 90966.49204
    20.84000 93344.53128 93867.86498
    20.84400 93288.67634 94494.31041
    20.84800 93242.99153 92030.31627
    20.85200 93206.68309 92706.40038
    20.85600 93179.10651 92807.75928
    20.86000 93159.75491 91608.33999
    20.86400 93148.28726 96762.19800
    20.86800 93144.57205 94892.23563
    20.87200 93148.19987 93228.92355
    20.87600 93159.07148 91294.68745
    20.88000 93177.35769 93018.46473
    20.88400 93203.19841 93762.16388
    20.88800 93236.83084 93268.67588
    20.89200 93278.59357 92270.24634
    20.89600 93328.93347 93046.64771
    20.90000 93388.41611 93380.81528
    20.90400 93457.73964 93948.71284
    20.90800 93537.75252 92231.10948
    20.91200 93629.47572 90366.72791
    20.91600 93734.12948 91684.67142
    20.92000 93853.16532 89755.56168
    20.92400 93988.30355 95070.17821
    20.92800 94141.57726 93092.91243
    20.93200 94315.38247 95639.60123
    20.93600 94512.54665 96126.05994
    20.94000 94735.51772 93764.24839
    20.94400 94989.82946 93911.31860
    20.94800 95276.04525 95258.43207
    20.95200 95605.57593 97639.05362
    20.95600 95981.47569 97522.46670
    20.96000 96410.46895 96466.11286
    20.96400 96899.84184 101138.10715
    20.96800 97458.12447 100210.99286
    20.97200 98094.63971 101056.38539
    20.97600 98818.89383 96403.09563
    20.98000 99640.14483 97103.99720
    20.98400 100566.48551 100085.37533
    20.98800 101604.04796 98571.52578
    20.99200 102753.94951 105078.86388
    20.99600 104010.84650 104316.43695
    21.00000 105360.47658 104238.57832
    21.00400 106778.78570 108399.00491
    21.00800 108234.54456 108230.40457
    21.01200 109697.78613 107930.27632
    21.01600 111154.80801 112624.06771
    21.02000 112626.94368 113018.45247
    21.02400 114184.44754 113921.87873
    21.02800 115932.35735 115741.98162
    21.03200 117921.47064 117202.17750
    21.03600 119983.53403 122319.27849
    21.04000 121698.03566 124874.36792
    21.04400 122686.51839 123509.31986
    21.04800 122878.62278 121825.96111
    21.05200 122402.84202 121051.17347
    21.05600 121391.72183 118575.33703
    21.06000 119900.46445 116231.02105
    21.06400 117905.01132 116989.54742
    21.06800 115372.99232 116746.06876
    21.07200 112426.37339 113775.72110
    21.07600 109460.39129 109086.95924
    21.08000 106950.90107 103775.30241
    21.08400 105112.79693 101745.39774
    21.08800 103888.73473 100796.57228
    21.09200 103141.36861 100959.26185
    21.09600 102754.63543 102684.22639
    21.10000 102650.92755 100296.50639
    21.10400 102783.83592 98748.85096
    21.10800 103128.13650 97998.17558
    21.11200 103671.78545 103287.66249
    21.11600 104410.39270 103412.51341
    21.12000 105343.35697 105926.24532
    21.12400 106471.66160 102256.48322
    21.12800 107795.46263 105333.53983
    21.13200 109311.62824 108775.88129
    21.13600 111007.32140 111062.28789
    21.14000 112846.94163 111544.77535
    21.14400 114753.52301 113590.25200
    21.14800 116596.38002 114141.25138
    21.15200 118203.94597 116449.35475
    21.15600 119405.78082 120047.95109
    21.16000 120077.02720 117421.76420
    21.16400 120157.01070 119928.48984
    21.16800 119637.29292 115118.06803
    21.17200 118543.48249 117759.49494
    21.17600 116927.58737 118707.78986
    21.18000 114875.29593 117553.99866
    21.18400 112518.04927 115521.43425
    21.18800 110029.07630 111542.39531
    21.19200 107589.96075 104460.64376
    21.19600 105343.87985 107686.88229
    21.20000 103368.95267 105761.88095
    21.20400 101683.85517 104216.77050
    21.20800 100270.06843 101420.71339
    21.21200 99092.70215 104030.41236
    21.21600 98113.38896 96263.03216
    21.22000 97296.45504 97438.00721
    21.22400 96611.18239 95331.46043
    21.22800 96032.18994 94963.63919
    21.23200 95539.01997 94879.77591
    21.23600 95115.14248 92344.80965
    21.24000 94748.32462 94738.27631
    21.24400 94427.21540 97896.56406
    21.24800 94145.87007 95627.75285
    21.25200 93896.79170 95707.50584
    21.25600 93675.68516 100687.77460
    21.26000 93478.09333 88272.50405
    21.26400 93300.70721 94027.93525
    21.26800 93140.79448 91970.82024
    21.27200 92996.07877 91275.25716
    21.27600 92864.64892 91736.42460
    21.28000 92744.88957 92284.76258
    21.28400 92635.42729 91282.52811
    21.28800 92535.09522 90055.51180
    21.29200 92442.37519 91701.30056
    21.29600 92357.27069 90145.78745
    21.30000 92276.46936 90524.77880
    21.30400 92203.90647 90596.23469
    21.30800 92136.58747 91166.35428
    21.31200 92073.98389 90173.64460
    21.31600 92015.63289 92049.89596
    21.32000 91961.20950 89780.39157
    21.32400 91909.85195 97627.04959
    21.32800 91862.39011 91667.49389
    21.33200 91817.94151 91033.83673
    21.33600 91776.28079 88985.37800
    21.34000 91737.28097 91325.27152
    21.34400 91700.99103 94153.72137
    21.34800 91667.89038 91866.06528
    21.35200 91635.36927 91096.61938
    21.35600 91604.67965 89209.68759
    21.36000 91575.73623 94776.60352
    21.36400 91548.42065 94325.84079
    21.36800 91522.62527 95656.44996
    21.37200 91498.25206 90869.59905
    21.37600 91475.21153 86159.30056
    21.38000 91453.42197 92367.22882
    21.38400 91432.80860 91314.12743
    21.38800 91413.32699 89549.58469
    21.39200 91395.01092 90259.56291
    21.39600 91377.64926 86027.66373
    21.40000 91361.12766 83979.38194
    21.40400 91345.59841 84055.83099
    21.40800 91330.98068 89772.13136
    21.41200 91316.96888 91604.19814
    21.41600 91303.71869 92831.38502
    21.42000 91291.19517 92612.86647
    21.42400 91279.36611 92306.09915
    21.42800 91268.20188 92632.56598
    21.43200 91257.67520 91513.56895
    21.43600 91247.76098 92178.15247
    21.44000 91238.43620 87230.59250
    21.44400 91229.67971 92572.23794
    21.44800 91221.47218 90943.51196
    21.45200 91213.79592 92129.84392
    21.45600 91206.63485 92537.79094
    21.46000 91199.97438 92640.33488
    21.46400 91193.80132 94103.55449
    21.46800 91188.24845 88460.03636
    21.47200 91183.75748 91584.10894
    21.47600 91179.19985 90519.63572
    21.48000 91174.87601 93243.91578
    21.48400 91170.99304 92484.31193
    21.48800 91167.54523 90803.43109
    21.49200 91164.52795 95058.00639
    21.49600 91161.93772 93390.72141
    21.50000 91159.77217 91211.96482
    21.50400 91158.03005 98225.96865
    21.50800 91156.71123 89098.77452
    21.51200 91155.85312 88947.87100
    21.51600 91155.59845 89643.60875
    21.52000 91155.73199 87906.54864
    21.52400 91156.13685 89623.42218
    21.52800 91156.97499 92848.41125
    21.53200 91158.26078 89263.06960
    21.53600 91160.00289 88338.91524
    21.54000 91162.21145 91208.21095
    21.54400 91164.89823 88942.72868
    21.54800 91168.09001 90590.56225
    21.55200 91171.85708 87876.47631
    21.55600 91176.14403 91971.77160
    21.56000 91180.90275 88034.07966
    21.56400 91185.83071 91169.54812
    21.56800 91191.63767 92377.54718
    21.57200 91196.32947 89258.63916
    21.57600 91203.50525 91646.73521
    21.58000 91211.36001 89671.86301
    21.58400 91219.93052 91562.65709
    21.58800 91229.25758 89290.42803
    21.59200 91239.38643 94573.70412
    21.59600 91250.36731 93828.82783
    21.60000 91262.25624 93700.84897
    21.60400 91275.09934 91483.04276
    21.60800 91288.83003 93586.32843
    21.61200 91303.05994 94078.86738
    21.61600 91319.28324 95135.97237
    21.62000 91336.80439 89882.88753
    21.62400 91355.73117 91655.26906
    21.62800 91376.18469 86801.19228
    21.63200 91398.30137 91857.02024
    21.63600 91422.33161 92031.01748
    21.64000 91448.75109 87560.66782
    21.64400 91477.01330 89761.39146
    21.64800 91507.54956 85327.16967
    21.65200 91540.76070 84920.18992
    21.65600 91576.94314 86313.45486
    21.66000 91616.43779 92108.16736
    21.66400 91659.63793 93389.29426
    21.66800 91706.99857 96993.08587
    21.67200 91759.04776 93016.72692
    21.67600 91816.40009 95247.83501
    21.68000 91879.77294 92223.11987
    21.68400 91950.00626 91090.98471
    21.68800 92028.08614 92806.39960
    21.69200 92115.17336 91531.22258
    21.69600 92212.64194 91646.15501
    21.70000 92321.78581 92406.36478
    21.70400 92444.38524 92237.59986
    21.70800 92579.45366 93360.95706
    21.71200 92737.83404 91917.17580
    21.71600 92918.16156 93674.38793
    21.72000 93124.07754 92764.97219
    21.72400 93359.79184 92334.82124
    21.72800 93630.11327 95625.89416
    21.73200 93940.44252 96548.00557
    21.73600 94296.69753 94458.22183
    21.74000 94705.12686 94245.27765
    21.74400 95171.98114 96319.28952
    21.74800 95703.04487 97165.42468
    21.75200 96302.62933 95552.10504
    21.75600 96972.94265 96343.68415
    21.76000 97715.74986 96383.44305
    21.76400 98534.38301 97399.91787
    21.76800 99440.72880 97930.98264
    21.77200 100465.57457 99061.36567
    21.77600 101669.82015 103382.16377
    21.78000 103144.43713 104086.66314
    21.78400 104974.17999 102682.22077
    21.78800 107127.39148 106981.04232
    21.79200 109336.57888 107921.21805
    21.79600 111187.75364 109184.95166
    21.80000 112397.56699 108275.24468
    21.80400 112920.89308 113214.41062
    21.80800 112831.02409 111364.74266
    21.81200 112191.17148 112934.32324
    21.81600 111005.89923 112236.06855
    21.82000 109238.88253 108410.53541
    21.82400 106906.28753 107569.48752
    21.82800 104220.13967 107133.04283
    21.83200 101589.62339 101080.50948
    21.83600 99371.08328 100277.96102
    21.84000 97675.68202 100540.24030
    21.84400 96432.62194 99096.91158
    21.84800 95523.61675 99188.59539
    21.85200 94847.57163 96448.08328
    21.85600 94332.38105 94846.64960
    21.86000 93929.33329 94075.71325
    21.86400 93606.98257 94998.55889
    21.86800 93344.51373 93415.45746
    21.87200 93127.78840 94372.94452
    21.87600 92946.90021 94934.80390
    21.88000 92794.51368 95277.09260
    21.88400 92665.21988 92632.54066
    21.88800 92554.92939 92872.69755
    21.89200 92460.44243 90291.34577
    21.89600 92379.24284 91921.99835
    21.90000 92309.32849 90215.16662
    21.90400 92249.08978 89714.62490
    21.90800 92197.22116 93233.68329
    21.91200 92152.65560 90955.42255
    21.91600 92114.51537 96612.48840
    21.92000 92082.07925 90648.31032
    21.92400 92054.83687 92754.79179
    21.92800 92032.51183 102575.91834
    21.93200 92013.93861 92297.67742
    21.93600 91999.19113 90438.55612
    21.94000 91987.97783 94895.39856
    21.94400 91980.05682 89593.07918
    21.94800 91975.21748 90861.04747
    21.95200 91973.31640 90066.48894
    21.95600 91974.16654 92628.25807
    21.96000 91977.76656 91187.74987
    21.96400 91983.99033 91596.37803
    21.96800 91992.78709 92601.25033
    21.97200 92004.12876 89821.57547
    21.97600 92018.01641 92707.53026
    21.98000 92034.49826 91910.16693
    21.98400 92053.55401 92676.76353
    21.98800 92075.22119 90500.10241
    21.99200 92099.61209 92368.12960
    21.99600 92126.82805 90939.69821
    22.00000 92156.99482 95761.29973
    22.00400 92190.26456 90001.56918
    22.00800 92226.81854 91178.90827
    22.01200 92266.87336 91853.91506
    22.01600 92310.69731 93658.06254
    22.02000 92358.57739 91887.98347
    22.02400 92410.79652 91455.24927
    22.02800 92467.79079 92665.54507
    22.03200 92530.02160 91033.54187
    22.03600 92598.02850 87564.54933
    22.04000 92672.44447 88541.36017
    22.04400 92754.01507 90447.78240
    22.04800 92843.62232 86448.55627
    22.05200 92942.31405 92139.52384
    22.05600 93051.33990 93283.98684
    22.06000 93172.19487 92058.55253
    22.06400 93306.67121 94243.30133
    22.06800 93456.91866 92803.63040
    22.07200 93625.51344 93248.08373
    22.07600 93815.53401 97562.29653
    22.08000 94030.64152 96107.73978
    22.08400 94275.17233 95030.72321
    22.08800 94554.23487 95492.51868
    22.09200 94873.58364 96189.50740
    22.09600 95239.59269 99371.97331
    22.10000 95659.20915 97743.82434
    22.10400 96141.65746 96602.95656
    22.10800 96693.76814 96965.04413
    22.11200 97322.19627 96368.79975
    22.11600 98031.06062 100888.00364
    22.12000 98819.73618 97503.85873
    22.12400 99680.36912 99142.86206
    22.12800 100595.27254 103139.13957
    22.13200 101538.75183 100040.79712
    22.13600 102476.70834 102564.36567
    22.14000 103375.44450 104046.17009
    22.14400 104208.63734 108797.54945
    22.14800 104961.82936 108445.99574
    22.15200 105627.86648 104363.68595
    22.15600 106189.40633 105773.53412
    22.16000 106601.34570 106505.45135
    22.16400 106805.40751 107888.75713
    22.16800 106773.75550 108751.40299
    22.17200 106528.57097 106798.25320
    22.17600 106121.57332 108440.33165
    22.18000 105605.58294 110425.99254
    22.18400 105021.19206 111159.48227
    22.18800 104393.17123 108876.63540
    22.19200 103749.18582 101674.82090
    22.19600 103143.18733 101487.74833
    22.20000 102656.95395 104303.77612
    22.20400 102363.09634 102778.56305
    22.20800 102292.88368 96752.93657
    22.21200 102442.88887 102463.13113
    22.21600 102797.49189 102090.87260
    22.22000 103342.32470 105407.78086
    22.22400 104066.72688 104995.66951
    22.22800 104963.84985 105080.79851
    22.23200 106028.82979 103218.68675
    22.23600 107255.21865 103069.93870
    22.24000 108632.85378 108163.31450
    22.24400 110145.66653 113978.70842
    22.24800 111769.31573 112504.95149
    22.25200 113469.33203 111407.58209
    22.25600 115193.83344 108403.17644
    22.26000 116884.76999 112457.14073
    22.26400 118449.16493 117316.83582
    22.26800 119783.22283 118884.93284
    22.27200 120783.41191 122956.21482
    22.27600 121366.72983 119879.60075
    22.28000 121484.35103 121379.96269
    22.28400 121123.82002 126957.14072
    22.28800 120303.89354 120016.94030
    22.29200 119068.90139 121157.64659
    22.29600 117486.43514 118269.39606
    22.30000 115647.07054 118573.66205
    22.30400 113660.35564 112870.49520
    22.30800 111640.85162 111378.35918
    22.31200 109690.16302 112287.89552
    22.31600 107881.57028 108945.93390
    22.32000 106255.64404 106850.24200
    22.32400 104826.09822 104158.39595
    22.32800 103588.88036 101671.26013
    22.33200 102530.21121 103466.59660
    22.33600 101632.13355 101597.50854
    22.34000 100875.83435 99816.42572
    22.34400 100243.43841 99827.82841
    22.34800 99718.90312 101078.48339
    22.35200 99288.31239 99586.22751
    22.35600 98939.46224 99807.26266
    22.36000 98662.74029 96159.39050
    22.36400 98450.35760 98026.04709
    22.36800 98295.36563 97518.55005
    22.37200 98192.61000 95912.49445
    22.37600 98138.93715 98136.98484
    22.38000 98130.93792 98373.94183
    22.38400 98166.95723 97495.03178
    22.38800 98246.45059 99579.15357
    22.39200 98369.57020 96839.58343
    22.39600 98537.31326 100590.70005
    22.40000 98751.55667 95491.96291
    22.40400 99015.09461 93870.77959
    22.40800 99331.70300 98676.30692
    22.41200 99706.22920 97036.03315
    22.41600 100144.70642 100745.32933
    22.42000 100654.48974 98088.20879
    22.42400 101244.40869 99696.81063
    22.42800 101924.93074 100561.14579
    22.43200 102708.32446 104718.01167
    22.43600 103608.80518 104494.48449
    22.44000 104642.63805 101179.81095
    22.44400 105828.15805 102110.14504
    22.44800 107185.64355 107432.95682
    22.45200 108736.94511 109640.61877
    22.45600 110504.71942 105016.88381
    22.46000 112511.03129 105683.38242
    22.46400 114775.08979 110235.65798
    22.46800 117309.68047 115571.91491
    22.47200 120116.07143 116134.24764
    22.47600 123177.33910 118194.47920
    22.48000 126450.72213 119569.54718
    22.48400 129860.59385 123367.21651
    22.48800 133294.71840 126233.60971
    22.49200 136606.91099 133353.76912
    22.49600 139628.24118 133998.28699
    22.50000 142186.17282 135119.93955
    22.50400 144127.43967 135228.75878
    22.50800 145338.21517 137083.86953
    22.51200 145755.69241 140832.85115
    22.51600 145367.40945 140140.11149
    22.52000 144199.08337 139089.83443
    22.52400 142304.18343 139823.43365
    22.52800 139773.70247 136147.96256
    22.53200 136749.34793 135262.22313
    22.53600 133406.99979 134537.35994
    22.54000 129921.44270 126885.95898
    22.54400 126437.90164 125315.15381
    22.54800 123059.11720 119886.42718
    22.55200 119848.57278 116115.09616
    22.55600 116847.90876 111824.65520
    22.56000 114096.76458 113324.67271
    22.56400 111632.28603 110348.21866
    22.56800 109468.01181 108054.56044
    22.57200 107587.30359 106304.07523
    22.57600 105957.51295 104079.00668
    22.58000 104543.31106 102763.25739
    22.58400 103312.44153 102685.81171
    22.58800 102237.14762 100221.42756
    22.59200 101294.05007 99009.55373
    22.59600 100463.58811 97692.51562
    22.60000 99729.40117 101959.98391
    22.60400 99077.77553 102282.82918
    22.60800 98497.18650 98749.36661
    22.61200 97977.92785 98195.69032
    22.61600 97511.81007 97856.19139
    22.62000 97091.91061 97144.78418
    22.62400 96712.36503 96358.37283
    22.62800 96368.19239 99667.01199
    22.63200 96055.14884 96670.56596
    22.63600 95769.60565 98416.62657
    22.64000 95508.45926 97319.11777
    22.64400 95269.11125 95489.13672
    22.64800 95049.29270 95387.50430
    22.65200 94846.57840 90871.40797
    22.65600 94659.46626 93059.43219
    22.66000 94486.61577 95301.70946
    22.66400 94327.31591 95943.35698
    22.66800 94178.73507 94255.63746
    22.67200 94040.37971 93963.58278
    22.67600 93911.55226 93273.15907
    22.68000 93791.42135 98212.67613
    22.68400 93679.29772 95603.51465
    22.68800 93574.74993 93682.81529
    22.69200 93476.62369 92973.38368
    22.69600 93384.60621 97669.31108
    22.70000 93298.27449 100396.51752
    22.70400 93217.19555 94972.21600
    22.70800 93140.97808 92626.20119
    22.71200 93069.26772 91079.38025
    22.71600 93001.74301 91608.10733
    22.72000 92938.11190 92570.47030
    22.72400 92878.10864 97285.56043
    22.72800 92821.49131 92280.76183
    22.73200 92768.16736 92388.41913
    22.73600 92718.39105 93231.82266
    22.74000 92671.15211 94654.59997
    22.74400 92626.52907 93537.13981
    22.74800 92583.88542 89723.54610
    22.75200 92543.55393 91842.69578
    22.75600 92505.40444 94288.61742
    22.76000 92469.31759 92446.91630
    22.76400 92435.18392 95051.67699
    22.76800 92402.90308 91116.12086
    22.77200 92372.38318 91843.77175
    22.77600 92343.54008 91646.23741
    22.78000 92316.29694 90723.77392
    22.78400 92290.58369 93686.37108
    22.78800 92266.33665 91635.80767
    22.79200 92243.49818 94496.26679
    22.79600 92222.01636 91529.81979
    22.80000 92201.84508 92546.58391
    22.80400 92182.91865 89907.84858
    22.80800 92165.17966 95303.85701
    22.81200 92148.32108 95025.63799
    22.81600 92133.03138 96887.15533
    22.82000 92118.89689 92568.15557
    22.82400 92105.90172 92562.07199
    22.82800 92094.03524 92422.98988
    22.83200 92083.29215 91811.63555
    22.83600 92073.67284 90554.00426
    22.84000 92065.18372 90372.80019
    22.84400 92057.83763 92229.69615
    22.84800 92051.65447 93375.59359
    22.85200 92046.66187 95537.02047
    22.85600 92042.89603 94590.82800
    22.86000 92040.40282 92878.38856
    22.86400 92039.23901 91144.00401
    22.86800 92039.47394 91703.38306
    22.87200 92041.19139 90392.59977
    22.87600 92044.49204 92424.21801
    22.88000 92049.49646 93386.79821
    22.88400 92056.34885 90775.31144
    22.88800 92065.22177 89514.41449
    22.89200 92076.32219 92217.07059
    22.89600 92089.89905 90426.18533
    22.90000 92106.25311 91046.68762
    22.90400 92125.74943 88546.75069
    22.90800 92148.83355 90126.66824
    22.91200 92176.05211 92024.31208
    22.91600 92208.07913 91740.90927
    22.92000 92245.75127 89755.90778
    22.92400 92290.14515 89710.16339
    22.92800 92342.64711 94195.03498
    22.93200 92404.53272 90620.96425
    22.93600 92477.96215 92509.03543
    22.94000 92565.35844 89696.76719
    22.94400 92669.65551 92305.84072
    22.94800 92794.34080 94828.60487
    22.95200 92943.44530 94294.02419
    22.95600 93121.42319 93079.66084
    22.96000 93332.81820 92030.96143
    22.96400 93581.54931 92188.48515
    22.96800 93869.60205 87953.33275
    22.97200 94194.99611 94679.61988
    22.97600 94549.32572 95312.94365
    22.98000 94916.00471 91139.39491
    22.98400 95270.95825 88666.32266
    22.98800 95586.59444 90007.37965
    22.99200 95837.44233 88036.00042
    22.99600 96004.41844 88388.22711
    23.00000 96076.16994 91024.91195
    23.00400 96048.48693 91392.72836
    23.00800 95923.68592 89327.50629
    23.01200 95710.84435 89027.61971
    23.01600 95426.79211 88327.90587
    23.02000 95095.49652 88624.28910
    23.02400 94744.72160 90789.44767
    23.02800 94399.98308 87603.31565
    23.03200 94080.35269 90028.45929
    23.03600 93796.87814 88170.21837
    23.04000 93553.32740 94882.47458
    23.04400 93348.49069 93634.11829
    23.04800 93179.36368 94953.48389
    23.05200 93039.66272 93071.42605
    23.05600 92928.75538 93469.18910
    23.06000 92840.49840 96341.66638
    23.06400 92771.73561 94603.15660
    23.06800 92719.32479 97485.77364
    23.07200 92680.90116 91435.32164
    23.07600 92654.57563 92978.88069
    23.08000 92638.88501 90783.24135
    23.08400 92632.72859 92740.52186
    23.08800 92635.31187 90787.35890
    23.09200 92646.09966 94652.67270
    23.09600 92664.77898 94581.34216
    23.10000 92691.23126 92710.39175
    23.10400 92725.51298 92455.01067
    23.10800 92767.84341 94448.43948
    23.11200 92818.59849 91186.57098
    23.11600 92878.31011 93218.37813
    23.12000 92947.66963 93103.55988
    23.12400 93027.53520 93406.00826
    23.12800 93118.94220 93839.63505
    23.13200 93223.11619 93537.68803
    23.13600 93341.55250 91790.34023
    23.14000 93476.15186 92939.75446
    23.14400 93628.19607 93889.15501
    23.14800 93800.00959 92685.74727
    23.15200 93994.06679 94501.07489
    23.15600 94212.99618 91760.06392
    23.16000 94459.65236 94323.32744
    23.16400 94737.07152 94234.94860
    23.16800 95048.39348 93954.95476
    23.17200 95396.74371 94475.27245
    23.17600 95785.07397 94313.91604
    23.18000 96215.96717 93743.98815
    23.18400 96691.38243 94607.56836
    23.18800 97212.81912 95413.29188
    23.19200 97780.74869 95795.34355
    23.19600 98399.07858 97297.55030
    23.20000 99071.06816 100237.54754
    23.20400 99806.03389 102138.22984
    23.20800 100621.35154 103035.63490
    23.21200 101544.49603 103511.86658
    23.21600 102609.19869 101194.19929
    23.22000 103847.61351 103934.01499
    23.22400 105259.98381 106555.67472
    23.22800 106776.50456 108124.40746
    23.23200 108242.14850 107302.05627
    23.23600 109464.76697 106973.57541
    23.24000 110297.05048 106300.33611
    23.24400 110672.23170 108641.00689
    23.24800 110580.83221 110967.72439
    23.25200 110031.26321 112630.24820
    23.25600 109036.98911 109169.19409
    23.26000 107624.76796 107072.31202
    23.26400 105872.20848 103532.24824
    23.26800 103934.25384 99923.86026
    23.27200 102014.53338 103482.21073
    23.27600 100284.79168 97702.84924
    23.28000 98828.60640 97912.54180
    23.28400 97650.02372 94915.30820
    23.28800 96712.60490 97660.79729
    23.29200 95969.45271 97345.58269
    23.29600 95376.95302 99224.67589
    23.30000 94899.39627 96889.32135
    23.30400 94509.10127 97463.24077
    23.30800 94184.50882 94435.34903
    23.31200 93913.87390 96049.14319
    23.31600 93684.23635 97446.61276
    23.32000 93487.25020 96581.67038
    23.32400 93317.24207 94951.88365
    23.32800 93169.22422 93580.53900
    23.33200 93039.53389 94860.94635
    23.33600 92925.34715 93598.90176
    23.34000 92824.37818 94836.36349
    23.34400 92734.30177 94875.53501
    23.34800 92653.82095 95319.20929
    23.35200 92581.65015 93511.20908
    23.35600 92516.78122 93738.36863
    23.36000 92458.37030 94037.01423
    23.36400 92405.29029 96669.08094
    23.36800 92357.11842 92926.43377
    23.37200 92313.30250 93580.84105
    23.37600 92273.36943 95776.18735
    23.38000 92236.91207 93399.44279
    23.38400 92203.57855 97622.15072
    23.38800 92173.06361 96925.43138
    23.39200 92145.10529 94584.69462
    23.39600 92119.15822 95482.62961
    23.40000 92095.41633 96873.95527
    23.40400 92071.59736 94813.78111
    23.40800 92051.86308 95497.20900
    23.41200 92033.75565 94298.89869
    23.41600 92017.12000 94769.70154
    23.42000 92001.89577 94549.50586
    23.42400 91987.98760 95293.10208
    23.42800 91975.31150 94264.32295
    23.43200 91963.79377 91652.21970
    23.43600 91953.37014 95147.72366
    23.44000 91943.98505 93767.02529
    23.44400 91935.59107 94955.32166
    23.44800 91928.14862 95454.29056
    23.45200 91921.62566 95395.28435
    23.45600 91915.99758 95457.36579
    23.46000 91911.24733 93702.79899
    23.46400 91907.36548 92716.23323
    23.46800 91904.35053 94169.70527
    23.47200 91902.23098 93859.21313
    23.47600 91901.10676 94323.48163
    23.48000 91900.84078 93324.21539
    23.48400 91901.41146 93505.23928
    23.48800 91902.98724 92204.96033
    23.49200 91905.32687 94257.72295
    23.49600 91909.08808 94071.49308
    23.50000 91914.03380 94831.09395
    23.50400 91920.24603 93532.73190
    23.50800 91927.81221 93298.20779
    23.51200 91936.82350 95441.29606
    23.51600 91947.41450 92553.78614
    23.52000 91959.77434 93321.20914
    23.52400 91973.50158 94062.59984
    23.52800 91988.80470 93767.24464
    23.53200 92005.56129 95587.88179
    23.53600 92023.53251 94025.41377
    23.54000 92042.34214 93164.75477
    23.54400 92061.48733 94288.62300
    23.54800 92080.40243 95664.45808
    23.55200 92098.31757 94467.98882
    23.55600 92114.51619 93157.69838
    23.56000 92128.54754 92919.27506
    23.56400 92140.10164 94448.37753
    23.56800 92149.17536 95190.95873
    23.57200 92156.18209 95111.88552
    23.57600 92162.15117 92696.89670
    23.58000 92169.23579 94810.91294
    23.58400 92182.12228 93692.46825
    23.58800 92210.71937 92729.23449
    23.59200 92267.00004 92765.04393
    23.59600 92338.82560 93435.07360
    23.60000 92390.32384 92998.14373
    23.60400 92414.93685 93776.86958
    23.60800 92423.42891 92481.56896
    23.61200 92425.63568 94170.73720
    23.61600 92422.76772 93582.43199
    23.62000 92413.18564 92900.09931
    23.62400 92390.10572 94285.77293
    23.62800 92341.95757 93710.35220
    23.63200 92271.45082 94137.00026
    23.63600 92213.18308 95291.05483
    23.64000 92184.81327 94439.62707
    23.64400 92176.59626 95388.89757
    23.64800 92178.54118 95013.21220
    23.65200 92186.01211 93275.34309
    23.65600 92197.09618 95660.58725
    23.66000 92210.82538 92502.34421
    23.66400 92226.70931 94538.94084
    23.66800 92244.55297 92601.30290
    23.67200 92264.31566 97571.32936
    23.67600 92285.77349 95313.74243
    23.68000 92308.82529 93381.46322
    23.68400 92333.59327 94021.47133
    23.68800 92360.11304 94689.00399
    23.69200 92388.44088 94561.61918
    23.69600 92418.65108 92989.90394
    23.70000 92450.83451 94136.70136
    23.70400 92485.11108 93737.38818
    23.70800 92521.66527 94240.90312
    23.71200 92560.49976 91510.70748
    23.71600 92601.80959 95079.68815
    23.72000 92645.79559 93765.65558
    23.72400 92692.65447 96384.71851
    23.72800 92742.60806 92206.95129
    23.73200 92795.93822 92093.48392
    23.73600 92853.00256 92677.29918
    23.74000 92913.81542 92909.04874
    23.74400 92978.88318 94624.55017
    23.74800 93048.58684 93139.43667
    23.75200 93123.35359 92545.19351
    23.75600 93203.66315 92763.53958
    23.76000 93290.23573 92957.00878
    23.76400 93384.30012 93355.67800
    23.76800 93485.18298 93118.95528
    23.77200 93593.80343 96148.04705
    23.77600 93711.47393 96912.11312
    23.78000 93839.10941 96179.85072
    23.78400 93978.04982 96185.44399
    23.78800 94129.52809 95737.59116
    23.79200 94295.21441 94988.21385
    23.79600 94476.31980 97506.77504
    23.80000 94675.09962 96709.19005
    23.80400 94893.81850 97437.84190
    23.80800 95135.08288 97630.51833
    23.81200 95401.89631 96082.92654
    23.81600 95697.71270 96213.79739
    23.82000 96026.50154 98581.13628
    23.82400 96392.81163 95285.79159
    23.82800 96801.83434 97187.65086
    23.83200 97259.46155 95443.00772
    23.83600 97772.33061 95930.54618
    23.84000 98347.84609 97320.46897
    23.84400 98994.16139 98874.92680
    23.84800 99720.09745 98185.57093
    23.85200 100534.96120 101004.11951
    23.85600 101448.21202 101674.29963
    23.86000 102468.90316 100307.47458
    23.86400 103604.80669 99967.06828
    23.86800 104861.12750 104134.86532
    23.87200 106238.75269 106709.92308
    23.87600 107732.10614 106108.00266
    23.88000 109326.93560 107476.27414
    23.88400 110998.75782 108919.38767
    23.88800 112712.60093 111446.58903
    23.89200 114424.32507 110656.56455
    23.89600 116087.61164 115449.13585
    23.90000 117658.76428 113559.28984
    23.90400 119102.52271 118964.69204
    23.90800 120392.18000 120404.15651
    23.91200 121500.44787 121311.04764
    23.91600 122382.54417 120767.13405
    23.92000 122966.28387 124972.75885
    23.92400 123169.96786 126069.43625
    23.92800 122943.35682 124615.46500
    23.93200 122291.05189 126450.45914
    23.93600 121249.89085 122849.35933
    23.94000 119845.09827 119417.18351
    23.94400 118101.77438 116094.39420
    23.94800 116080.35512 112372.63162
    23.95200 113865.72870 110951.61672
    23.95600 111566.96509 112065.65158
    23.96000 109310.88931 104784.81822
    23.96400 107206.87553 106951.33990
    23.96800 105312.56865 103632.86692
    23.97200 103639.99383 102383.37663
    23.97600 102195.24951 98202.91727
    23.98000 100985.11764 98211.42960
    23.98400 99982.47116 96897.86854
    23.98800 99143.71543 97422.41464
    23.99200 98433.50957 96170.64094
    23.99600 97825.76298 95033.84110
    24.00000 97300.99168 94618.50278
    24.00400 96844.00742 96233.22864
    24.00800 96442.77771 96566.97072
    24.01200 96087.71249 94239.74767
    24.01600 95771.16046 96154.90178
    24.02000 95486.34845 96181.30701
    24.02400 95228.56443 101008.82752
    24.02800 94993.97563 94985.31408
    24.03200 94779.28655 95542.61643
    24.03600 94581.91445 93365.13548
    24.04000 94400.14401 95171.72106
    24.04400 94232.50943 94237.61932
    24.04800 94077.83400 93236.11765
    24.05200 93935.12515 93198.77591
    24.05600 93803.49763 96202.77455
    24.06000 93682.12650 93890.32446
    24.06400 93570.22529 92617.14510
    24.06800 93467.04109 94906.56215
    24.07200 93371.85791 91809.08943
    24.07600 93284.00255 93484.30716
    24.08000 93202.84922 93360.11849
    24.08400 93127.82217 90927.03780
    24.08800 93058.39584 92476.79000
    24.09200 92994.09332 93679.52206
    24.09600 92934.48376 93083.44504
    24.10000 92879.17898 95338.23754
    24.10400 92827.83003 93595.65052
    24.10800 92780.13376 93055.44859
    24.11200 92735.86922 91263.21826
    24.11600 92694.78162 91768.78693
    24.12000 92656.43301 92683.13495
    24.12400 92620.76710 93217.35613
    24.12800 92587.60339 91838.28989
    24.13200 92556.78102 91662.73862
    24.13600 92528.11802 91500.70349
    24.14000 92501.40942 90788.37387
    24.14400 92476.00196 91160.05616
    24.14800 92453.25204 90507.80308
    24.15200 92432.26413 91165.54352
    24.15600 92412.95912 91793.12084
    24.16000 92395.25357 91305.80362
    24.16400 92379.06932 90566.64493
    24.16800 92364.17683 92294.40681
    24.17200 92350.99884 91190.52758
    24.17600 92339.24389 92789.01152
    24.18000 92328.88435 93388.61112
    24.18400 92319.90017 95656.07906
    24.18800 92312.27883 93801.40962
    24.19200 92306.01546 90143.26477
    24.19600 92301.11292 92586.55496
    24.20000 92297.58211 90831.51903
    24.20400 92295.44230 93478.81613
    24.20800 92294.72161 88974.10647
    24.21200 92295.45756 91033.03025
    24.21600 92297.70506 90787.13788
    24.22000 92301.63929 90090.39037
    24.22400 92307.26051 88436.30716
    24.22800 92314.41732 90475.44901
    24.23200 92323.38878 90802.31355
    24.23600 92334.28874 90875.16116
    24.24000 92347.24880 91101.09104
    24.24400 92362.42615 90440.33778
    24.24800 92380.03453 90454.58265
    24.25200 92400.27659 90494.46635
    24.25600 92423.22440 94151.01522
    24.26000 92449.23672 90961.36769
    24.26400 92478.60732 94061.77877
    24.26800 92511.67915 91308.50159
    24.27200 92548.79944 95272.05936
    24.27600 92590.37381 92136.04737
    24.28000 92636.88560 93528.16476
    24.28400 92688.85645 90972.85093
    24.28800 92746.86545 93291.58071
    24.29200 92811.55081 92313.82050
    24.29600 92883.62986 91973.38526
    24.30000 92963.94990 89842.04305
    24.30400 93053.16784 92175.23347
    24.30800 93151.89115 90890.64530
    24.31200 93261.02096 92040.57803
    24.31600 93381.19185 92825.56293
    24.32000 93512.84786 92163.23762
    24.32400 93656.02989 92541.14032
    24.32800 93810.62953 95280.53317
    24.33200 93975.19891 91975.19475
    24.33600 94149.06898 91551.55029
    24.34000 94329.06654 91081.61485
    24.34400 94511.20306 94286.62660
    24.34800 94689.88549 95053.91369
    24.35200 94857.83877 94381.91115
    24.35600 95006.51287 96088.34815
    24.36000 95127.09876 92928.52874
    24.36400 95211.90623 93066.85980
    24.36800 95255.57329 93103.05595
    24.37200 95255.69059 92401.62983
    24.37600 95212.83324 93806.43359
    24.38000 95130.29690 93565.33981
    24.38400 95013.81284 92119.82843
    24.38800 94871.26140 94515.25067
    24.39200 94712.15987 93631.35241
    24.39600 94546.70655 94005.40075
    24.40000 94384.47491 93497.14639
    24.40400 94233.20740 91701.21182
    24.40800 94098.17827 91489.61161
    24.41200 93982.25279 91297.93124
    24.41600 93886.41080 93957.17770
    24.42000 93810.40156 91710.99106
    24.42400 93753.30665 91927.78773
    24.42800 93713.93713 90980.57881
    24.43200 93691.07992 92293.78425
    24.43600 93683.63723 92976.60298
    24.44000 93690.69947 91889.43226
    24.44400 93711.57679 91856.83289
    24.44800 93745.82696 92851.17285
    24.45200 93793.22629 94794.21261
    24.45600 93853.84589 93040.52382
    24.46000 93927.97473 92498.97605
    24.46400 94016.30365 91957.43812
    24.46800 94119.81279 92208.89117
    24.47200 94238.73743 94357.33058
    24.47600 94374.98186 94781.93747
    24.48000 94530.26778 90908.79643
    24.48400 94706.68559 92281.36386
    24.48800 94906.73817 94336.45716
    24.49200 95133.39125 94659.81242
    24.49600 95390.13011 96491.69158
    24.50000 95681.02107 92608.24907
    24.50400 96010.77797 93781.13708
    24.50800 96384.83515 95676.17739
    24.51200 96809.38712 98578.12139
    24.51600 97291.40023 97372.15620
    24.52000 97838.77366 100262.01491
    24.52400 98460.26031 98159.84061
    24.52800 99165.12738 98095.92095
    24.53200 99963.30792 99323.53113
    24.53600 100864.95286 98463.02635
    24.54000 101880.21275 98234.46418
    24.54400 103017.45562 102042.84533
    24.54800 104285.67414 99497.35099
    24.55200 105689.84980 104888.07408
    24.55600 107233.90654 103089.51383
    24.56000 108921.26586 103795.12985
    24.56400 110757.47229 108888.09340
    24.56800 112753.68032 110736.11632
    24.57200 114928.93046 114053.30331
    24.57600 117306.81707 115899.66777
    24.58000 119900.38617 118713.64013
    24.58400 122682.82240 120046.47951
    24.58800 125558.84685 122251.67294
    24.59200 128376.49466 125108.88091
    24.59600 131006.08243 130329.49266
    24.60000 133423.40672 131885.16861
    24.60400 135620.12688 136190.02847
    24.60800 137284.71967 137165.23454
    24.61200 137843.16883 136000.66669
    24.61600 137034.36028 136313.26743
    24.62000 135013.15182 134068.53686
    24.62400 132081.26543 132471.90367
    24.62800 128545.32868 127172.69467
    24.63200 124651.41753 124346.92572
    24.63600 120509.64803 119880.21288
    24.64000 116134.49782 116741.64793
    24.64400 111733.78758 113524.29372
    24.64800 107849.04229 109918.04100
    24.65200 104845.12947 103596.11269
    24.65600 102651.50218 102874.01756
    24.66000 101036.01276 99633.94517
    24.66400 99807.80548 101986.61603
    24.66800 98844.38629 99104.30760
    24.67200 98069.60053 97346.04457
    24.67600 97434.46972 96472.96940
    24.68000 96906.58210 96465.29044
    24.68400 96462.20002 95495.42215
    24.68800 96085.02512 95269.24828
    24.69200 95762.01030 92674.94651
    24.69600 95485.19685 92983.48802
    24.70000 95246.55821 95635.03409
    24.70400 95040.38833 95433.96072
    24.70800 94862.15496 96103.25766
    24.71200 94708.24949 94237.22903
    24.71600 94575.90082 94243.91074
    24.72000 94462.72325 94262.71942
    24.72400 94366.17254 99155.20638
    24.72800 94285.07616 93243.52721
    24.73200 94218.15122 91123.34433
    24.73600 94164.36962 95636.40085
    24.74000 94122.98540 94475.64263
    24.74400 94093.24690 94706.46660
    24.74800 94074.69739 95630.32895
    24.75200 94067.04848 93360.89583
    24.75600 94070.12162 94825.92521
    24.76000 94083.88663 96813.43534
    24.76400 94108.44438 96162.15492
    24.76800 94144.16030 98421.51826
    24.77200 94190.98236 94632.85151
    24.77600 94249.43160 94829.25720
    24.78000 94320.24933 94041.71128
    24.78400 94404.21753 95608.60507
    24.78800 94502.29971 93786.44726
    24.79200 94615.66436 93347.60873
    24.79600 94745.71432 94456.41033
    24.80000 94894.12169 94434.35880
    24.80400 95062.87043 96777.73869
    24.80800 95254.30486 92650.04337
    24.81200 95471.18648 96019.43675
    24.81600 95716.75785 97858.13600
    24.82000 95994.81238 97191.93638
    24.82400 96309.77019 93790.75279
    24.82800 96666.75686 97605.64290
    24.83200 97071.68157 95621.13814
    24.83600 97531.31116 98015.15472
    24.84000 98053.32934 96236.41629
    24.84400 98646.37250 99217.11815
    24.84800 99320.02267 98568.34150
    24.85200 100084.76039 100224.12952
    24.85600 100951.76355 101532.61346
    24.86000 101932.28879 101148.57956
    24.86400 103036.83114 101597.80889
    24.86800 104276.30362 104741.71265
    24.87200 105656.94878 105183.17393
    24.87600 107180.64951 103986.50895
    24.88000 108841.83647 104684.70243
    24.88400 110624.87808 103619.23389
    24.88800 112502.09927 108545.24598
    24.89200 114433.39568 110652.12590
    24.89600 116368.22080 111670.51464
    24.90000 118249.81622 113986.50413
    24.90400 120020.08071 115811.31295
    24.90800 121622.37502 116405.38983
    24.91200 123000.33179 119778.25588
    24.91600 124094.75610 121022.92162
    24.92000 124846.22043 119156.31569
    24.92400 125210.51957 118676.31594
    24.92800 125178.73902 118808.48137
    24.93200 124772.40835 121286.28826
    24.93600 123994.72745 117800.86628
    24.94000 122810.08605 116975.72696
    24.94400 121215.69671 111488.70315
    24.94800 119287.47108 113795.39773
    24.95200 117138.45482 110203.50028
    24.95600 114882.64036 109026.38595
    24.96000 112619.03907 106151.23656
    24.96400 110417.33380 107366.66195
    24.96800 108314.14749 105762.14229
    24.97200 106351.34809 103949.79830
    24.97600 104614.60593 103426.54218
    24.98000 103176.50416 102647.56535
    24.98400 102030.76414 100448.33901
    24.98800 101123.71084 100253.96194
    24.99200 100402.65760 98017.13686
    24.99600 99825.72463 98519.31453
    25.00000 99361.08127 99039.76810
    25.00400 98982.70089 97428.44956
    25.00800 98668.30169 97809.56626
    25.01200 98397.92494 96836.31195
    25.01600 98153.38735 98782.03938
    25.02000 97919.04200 97790.27522
    25.02400 97682.05650 97167.07797
    25.02800 97433.63366 95131.25206
    25.03200 97167.61901 94497.55508
    25.03600 96884.22325 95112.65320
    25.04000 96584.07918 96388.21659
    25.04400 96271.25826 94517.63041
    25.04800 95951.76692 96823.38195
    25.05200 95632.84854 94519.19265
    25.05600 95322.07520 100261.24569
    25.06000 95026.31096 95346.63639
    25.06400 94750.83551 96374.20972
    25.06800 94498.91703 97284.30423
    25.07200 94271.89613 92122.88399
    25.07600 94069.61019 94832.79129
    25.08000 93890.91865 93814.01820
    25.08400 93734.16137 94285.06894
    25.08800 93597.48862 93055.15410
    25.09200 93479.06882 95874.47911
    25.09600 93377.20574 93954.52017
    25.10000 93290.39692 95314.99548
    25.10400 93217.35763 94013.12207
    25.10800 93157.02508 94438.29092
    25.11200 93108.55264 92948.10126
    25.11600 93071.29922 93424.27495
    25.12000 93044.81689 96332.97458
    25.12400 93028.83860 94305.30155
    25.12800 93023.26670 93784.05909
    25.13200 93028.16354 91510.68211
    25.13600 93043.74373 94604.68299
    25.14000 93070.36829 93099.50770
    25.14400 93108.54036 93642.95267
    25.14800 93158.90196 93282.92521
    25.15200 93222.23101 94905.49114
    25.15600 93299.43733 93485.64280
    25.16000 93391.55643 96925.43313
    25.16400 93499.73859 96960.47272
    25.16800 93625.23067 95759.37531
    25.17200 93769.34643 93276.09396
    25.17600 93933.42120 93338.24726
    25.18000 94118.74280 95606.57126
    25.18400 94326.45226 95545.80277
    25.18800 94557.40421 96073.38754
    25.19200 94811.97787 93187.03967
    25.19600 95089.83337 93442.83950
    25.20000 95389.61383 94752.40990
    25.20400 95708.61218 93485.78167
    25.20800 96042.44965 92400.04978
    25.21200 96384.85080 97574.50652
    25.21600 96727.64659 99383.75370
    25.22000 97061.18135 99795.62976
    25.22400 97375.18663 99433.82063
    25.22800 97659.83327 100698.54858
    25.23200 97908.40547 98727.31488
    25.23600 98119.17108 98820.15957
    25.24000 98296.40465 99416.46287
    25.24400 98457.91871 101939.78201
    25.24800 98634.79269 103046.63774
    25.25200 98869.67476 103480.11683
    25.25600 99195.65716 101770.81767
    25.26000 99587.28667 99928.85787
    25.26400 99936.12709 101151.75756
    25.26800 100129.71812 100029.82460
    25.27200 100141.83964 103779.06574
    25.27600 100003.86279 101744.59010
    25.28000 99746.82456 99987.65351
    25.28400 99379.80337 99262.73010
    25.28800 98889.91031 99243.84855
    25.29200 98260.26008 97609.28161
    25.29600 97515.68466 97919.16970
    25.30000 96763.51699 97769.39606
    25.30400 96140.95896 99170.63987
    25.30800 95707.69706 100439.38195
    25.31200 95444.17090 96018.63817
    25.31600 95310.34469 101209.42051
    25.32000 95273.21614 96171.19777
    25.32400 95308.82511 100080.55230
    25.32800 95398.32394 98697.97232
    25.33200 95525.20904 98900.25279
    25.33600 95671.55666 96627.19487
    25.34000 95818.27024 97527.94118
    25.34400 95945.62410 97373.03301
    25.34800 96035.74647 98491.19335
    25.35200 96072.89561 97131.56055
    25.35600 96048.25374 100268.58036
    25.36000 95955.85329 96325.33239
    25.36400 95795.63740 97844.68832
    25.36800 95572.63714 98622.95315
    25.37200 95296.65763 97997.12137
    25.37600 94981.38883 98420.60527
    25.38000 94642.69945 96530.04552
    25.38400 94296.35917 96756.40699
    25.38800 93955.91134 95212.72977
    25.39200 93631.39811 94483.72097
    25.39600 93329.14016 95464.50599
    25.40000 93052.27401 93087.82619
    25.40400 92801.59235 94607.28801
    25.40800 92576.35662 92230.38089
    25.41200 92374.93811 94785.64120
    25.41600 92195.26752 92519.98151
    25.42000 92035.12637 93690.59489
    25.42400 91892.32405 92920.22478
    25.42800 91764.79749 94231.96753
    25.43200 91650.66133 91430.51156
    25.43600 91548.22697 92357.58078
    25.44000 91456.00285 91666.56886
    25.44400 91372.69619 89948.73037
    25.44800 91297.22861 93351.23216
    25.45200 91228.49308 91805.24434
    25.45600 91165.68561 90749.97064
    25.46000 91108.09767 92898.05190
    25.46400 91055.10440 93162.70516
    25.46800 91006.19600 93426.80676
    25.47200 90960.99731 93557.61820
    25.47600 90918.84989 93242.76470
    25.48000 90879.55501 92798.48662
    25.48400 90842.57601 91744.68879
    25.48800 90808.03167 93629.40112
    25.49200 90773.94888 92825.17706
    25.49600 90743.47981 94503.24594
    25.50000 90714.72236 94103.98636
    25.50400 90687.52794 93961.65665
    25.50800 90661.81742 91886.04189
    25.51200 90637.73068 91938.93266
    25.51600 90614.84953 91139.05522
    25.52000 90592.74677 91482.64388
    25.52400 90571.70031 95453.52542
    25.52800 90551.69657 92489.11974
    25.53200 90532.37197 93721.06384
    25.53600 90514.01357 95009.18645
    25.54000 90495.69636 91278.67672
    25.54400 90478.93950 92357.27783
    25.54800 90462.87503 91710.22678
    25.55200 90447.48395 92616.00268
    25.55600 90432.73282 91866.73141
    25.56000 90418.59168 90257.48587
    25.56400 90405.03387 93403.82136
    25.56800 90392.01525 92188.51015
    25.57200 90379.50332 92799.15462
    25.57600 90367.23471 93197.95208
    25.58000 90355.80122 94427.15015
    25.58400 90344.85234 91126.78033
    25.58800 90334.37963 91193.73762
    25.59200 90324.37264 90975.86954
    25.59600 90314.82275 90654.70322
    25.60000 90305.72306 89625.04097
    25.60400 90297.06878 89222.98429
    25.60800 90288.85847 90436.62778
    25.61200 90281.08866 89478.86888
    25.61600 90273.77429 92871.69075
    25.62000 90266.87948 91385.96021
    25.62400 90260.42863 88717.22784
    25.62800 90254.46346 91964.00608
    25.63200 90249.11616 91313.66756
    25.63600 90244.02583 89672.53081
    25.64000 90239.40571 91415.23699
    25.64400 90235.26708 91488.17574
    25.64800 90231.62318 90873.97746
    25.65200 90228.35608 90903.13552
    25.65600 90225.65520 89858.82702
    25.66000 90222.48277 89604.21539
    25.66400 90221.18777 88515.84455
    25.66800 90220.32276 90672.84878
    25.67200 90220.05570 90334.86171
    25.67600 90220.44146 91579.70553
    25.68000 90221.51458 90821.88165
    25.68400 90223.31350 88455.56174
    25.68800 90225.88163 90205.21858
    25.69200 90229.19749 92727.75173
    25.69600 90233.43894 91850.63791
    25.70000 90238.27567 91891.18174
    25.70400 90244.44755 89262.93131
    25.70800 90251.68418 94035.76610
    25.71200 90260.06645 93461.40415
    25.71600 90269.69217 92747.83035
    25.72000 90280.70659 91667.54002
    25.72400 90293.14282 91737.40117
    25.72800 90307.12801 91526.36174
    25.73200 90322.83618 92171.82801
    25.73600 90340.43227 92811.14750
    25.74000 90360.13742 91196.28757
    25.74400 90382.27160 93184.35916
    25.74800 90406.74777 93614.22783
    25.75200 90434.02746 91517.76438
    25.75600 90464.44821 93577.08863
    25.76000 90498.46676 93413.47258
    25.76400 90536.32901 92444.16241
    25.76800 90578.56025 92404.21715
    25.77200 90625.78084 93562.08147
    25.77600 90678.67040 92427.97790
    25.78000 90738.07406 91206.97346
    25.78400 90804.80223 95273.89217
    25.78800 90879.77641 93927.03900
    25.79200 90964.28644 91602.68645
    25.79600 91059.68970 90768.71725
    25.80000 91167.53275 89747.99734
    25.80400 91289.56632 91420.54007
    25.80800 91427.77027 89777.74867
    25.81200 91584.39250 91586.19542
    25.81600 91761.67818 90233.47533
    25.82000 91962.30534 94097.40351
    25.82400 92189.00416 92600.55247
    25.82800 92444.53930 95163.40043
    25.83200 92731.54342 93349.65792
    25.83600 93052.26209 95006.41241
    25.84000 93408.19665 90580.39655
    25.84400 93799.65425 95973.81470
    25.84800 94225.25963 93571.95214
    25.85200 94681.54319 93555.79233
    25.85600 95162.75910 91410.91173
    25.86000 95661.04907 97095.28355
    25.86400 96166.88296 97455.58982
    25.86800 96669.41471 96255.41054
    25.87200 97156.21557 96080.99729
    25.87600 97612.15973 97937.14058
    25.88000 98018.38936 100471.18737
    25.88400 98353.46685 97619.31200
    25.88800 98597.33387 98239.41613
    25.89200 98739.17154 98930.81578
    25.89600 98768.79797 99012.91871
    25.90000 98674.26019 96790.58448
    25.90400 98442.64965 97335.92964
    25.90800 98073.89908 96834.50438
    25.91200 97587.68093 95992.11226
    25.91600 97013.00524 94321.00746
    25.92000 96383.25009 96387.88472
    25.92400 95730.11955 95057.61671
    25.92800 95078.99482 91474.63256
    25.93200 94449.35419 91901.67512
    25.93600 93862.14535 91100.83706
    25.94000 93341.63394 94299.34889
    25.94400 92902.21725 92900.92009
    25.94800 92542.08464 93033.88449
    25.95200 92249.05197 92051.92129
    25.95600 92009.93079 90413.22341
    25.96000 91813.72554 94236.89084
    25.96400 91651.75254 91561.33834
    25.96800 91517.88093 90414.19382
    25.97200 91407.06631 90284.40592
    25.97600 91315.57128 90853.27268
    25.98000 91240.50233 90907.95122
    25.98400 91179.60009 92243.00959
    25.98800 91131.09177 90830.86435
    25.99200 91093.58411 94455.05465
    25.99600 91065.99048 92714.97725
    26.00000 91047.49264 91746.26631
    26.00400 91037.39714 90677.34921
    26.00800 91035.16133 93930.43393
    26.01200 91040.47888 93600.64321
    26.01600 91053.11496 92000.53316
    26.02000 91072.94072 89855.49838
    26.02400 91099.92370 91309.30752
    26.02800 91134.12175 94719.94865
    26.03200 91175.67936 91473.76896
    26.03600 91224.82668 90717.34735
    26.04000 91281.89176 94930.27126
    26.04400 91347.34106 90135.28614
    26.04800 91421.61094 88295.29576
    26.05200 91505.21998 88716.71458
    26.05600 91598.97275 89704.12676
    26.06000 91703.71595 95073.79554
    26.06400 91820.43819 91014.14194
    26.06800 91950.28870 96509.33271
    26.07200 92094.59946 92291.38479
    26.07600 92254.91102 92854.38869
    26.08000 92433.01177 90568.96809
    26.08400 92630.99839 92035.38859
    26.08800 92851.12073 91346.38216
    26.09200 93096.13634 94349.07072
    26.09600 93369.16307 96930.82982
    26.10000 93673.75157 94559.88829
    26.10400 94013.94187 94055.66239
    26.10800 94394.30758 94336.06498
    26.11200 94819.99319 98124.54190
    26.11600 95296.73960 98089.87604
    26.12000 95830.88824 96088.20852
    26.12400 96429.35148 94445.71553
    26.12800 97099.58851 97328.15286
    26.13200 97849.62197 98943.56092
    26.13600 98686.92409 102287.99242
    26.14000 99618.44686 100128.71380
    26.14400 100650.78804 98263.15034
    26.14800 101788.23854 100818.67217
    26.15200 103031.63317 103644.75570
    26.15600 104376.71203 101265.65358
    26.16000 105812.66936 103287.44405
    26.16400 107319.64518 104558.06339
    26.16800 108871.94091 105247.50546
    26.17200 110433.46134 106681.98939
    26.17600 111964.72339 112403.16671
    26.18000 113426.49294 111483.11585
    26.18400 114785.02870 112015.74807
    26.18800 116016.30971 113713.03976
    26.19200 117108.57326 113545.63995
    26.19600 118065.71928 115139.67913
    26.20000 118909.96601 118695.14082
    26.20400 119676.56651 119494.56379
    26.20800 120381.12335 116253.45832
    26.21200 120959.64243 120529.44975
    26.21600 121251.95180 119995.82795
    26.22000 121099.60235 120594.54261
    26.22400 120455.56573 122333.16533
    26.22800 119371.27692 120387.94008
    26.23200 117926.20959 117520.04502
    26.23600 116185.17340 118836.75303
    26.24000 114190.05933 116576.84265
    26.24400 111984.64769 111809.01332
    26.24800 109671.99957 110094.19587
    26.25200 107450.81844 106147.71618
    26.25600 105540.31351 104485.25505
    26.26000 104053.71577 105239.97255
    26.26400 102980.18507 100882.01861
    26.26800 102251.78323 100339.72509
    26.27200 101792.89535 97759.12642
    26.27600 101535.88313 98625.75817
    26.28000 101422.00881 101821.45195
    26.28400 101397.68466 98473.11630
    26.28800 101413.94853 98651.06184
    26.29200 101424.23546 100488.90019
    26.29600 101387.72690 93300.20086
    26.30000 101271.65692 97229.67117
    26.30400 101053.33971 94497.40106
    26.30800 100720.95027 98999.75040
    26.31200 100273.29457 97440.08623
    26.31600 99719.07140 99571.24979
    26.32000 99075.78415 95478.98463
    26.32400 98367.97436 95150.25111
    26.32800 97624.36092 95100.29175
    26.33200 96874.00171 90636.18240
    26.33600 96142.46452 90511.06660
    26.34000 95448.91915 93623.84500
    26.34400 94806.37255 93928.94326
    26.34800 94220.56472 94371.45544
    26.35200 93692.73919 93235.36896
    26.35600 93220.89467 90178.48986
    26.36000 92801.24636 91065.15174
    26.36400 92428.76813 91252.23316
    26.36800 92099.15344 94454.04308
    26.37200 91807.21065 91263.66994
    26.37600 91548.42639 91619.64279
    26.38000 91318.67602 93592.17304
    26.38400 91114.31349 95931.19916
    26.38800 90931.66369 95452.52778
    26.39200 90769.28801 90302.02585
    26.39600 90624.17841 85973.79781
    26.40000 90494.38496 91290.73812
    26.40400 90378.22816 88377.81300
    26.40800 90274.39201 91714.00394
    26.41200 90181.86388 93930.96299
    26.41600 90099.82766 92248.74134
    26.42000 90027.16133 92012.63189
    26.42400 89963.63015 95175.11854
    26.42800 89908.88860 96344.09472
    26.43200 89862.75168 95622.24299
    26.43600 89825.22437 95113.08195
    26.44000 89796.32167 94068.81589
    26.44400 89776.23131 91940.86761
    26.44800 89765.25219 92096.29901
    26.45200 89764.29728 93784.63201
    26.45600 89773.88221 90733.79048
    26.46000 89794.90155 92248.63514
    26.46400 89828.45477 93474.95087
    26.46800 89875.88539 94601.32230
    26.47200 89938.84503 95286.75178
    26.47600 90019.39341 94532.17059
    26.48000 90120.01437 91860.92923
    26.48400 90244.29053 94352.07388
    26.48800 90395.67489 94410.22148
    26.49200 90581.23048 93039.53728
    26.49600 90807.06510 93206.42702
    26.50000 91081.68319 94708.78265
    26.50400 91415.29467 95355.79742
    26.50800 91819.41869 96405.44935
    26.51200 92304.24240 95017.80452
    26.51600 92870.08737 95722.74619
    26.52000 93491.17000 97403.53094
    26.52400 94103.71397 96365.42407
    26.52800 94622.91430 95359.81923
    26.53200 94982.21691 97955.92367
    26.53600 95153.11027 99485.57980
    26.54000 95133.41860 99178.42172
    26.54400 94930.29346 96065.84082
    26.54800 94551.29855 95398.25502
    26.55200 94007.11619 96252.28701
    26.55600 93326.23614 95389.01403
    26.56000 92567.90190 94346.26728
    26.56400 91819.36415 94116.36710
    26.56800 91151.03485 91383.67372
    26.57200 90594.90976 91816.34464
    26.57600 90149.21439 94890.58464
    26.58000 89796.81945 92365.42391
    26.58400 89517.89005 90923.39302
    26.58800 89295.04700 92091.38639
    26.59200 89114.57466 91914.49600
    26.59600 88966.18455 91275.11784
    26.60000 88842.55561 91849.40624
    26.60400 88738.17770 89409.51046
    26.60800 88647.81945 90000.08426
    26.61200 88569.29438 89404.59046
    26.61600 88500.59157 92995.86978
    26.62000 88439.26227 92432.11111
    26.62400 88384.38133 92271.28775
    26.62800 88334.90679 93329.68410
    26.63200 88290.01053 95767.01209
    26.63600 88249.02678 88294.19549
    26.64000 88211.41494 94976.82828
    26.64400 88176.73224 86796.11929
    26.64800 88144.61308 89935.51878
    26.65200 88114.75343 87463.47518
    26.65600 88086.89873 90825.83057
    26.66000 88060.83456 94210.36785
    26.66400 88036.37928 93361.99334
    26.66800 88013.37824 93694.12516
    26.67200 87991.69920 93434.84292
    26.67600 87971.22860 93813.39323
    26.68000 87951.86863 91214.73254
    26.68400 87933.53477 96317.34785
    26.68800 87916.15380 93951.08774
    26.69200 87899.66224 95629.34352
    26.69600 87884.00497 93051.89826
    26.70000 87869.13409 94718.92177
    26.70400 87855.00800 93249.07519
    26.70800 87841.60013 92129.29359
    26.71200 87828.92885 94306.95086
    26.71600 87816.86029 92372.68305
    26.72000 87805.39918 94084.30348
    26.72400 87794.54626 94068.81680
    26.72800 87784.28514 93185.41490
    26.73200 87774.60226 91635.18349
    26.73600 87765.48666 93265.27068
    26.74000 87756.92981 92533.61025
    26.74400 87748.92538 92668.65405
    26.74800 87741.46916 92327.61734
    26.75200 87734.55892 93644.39167
    26.75600 87728.19430 93904.70381
    26.76000 87722.37675 94029.68902
    26.76400 87717.10949 93275.01292
    26.76800 87712.40507 93044.05973
    26.77200 87708.32584 92983.49991
    26.77600 87704.87700 92974.77725
    26.78000 87701.87727 93762.25694
    26.78400 87699.46920 92995.51466
    26.78800 87697.66612 92437.24544
    26.79200 87696.48312 93474.90962
    26.79600 87695.93705 92082.58995
    26.80000 87696.04662 91800.97027
    26.80400 87696.85125 93219.85120
    26.80800 87698.47206 91499.93951
    26.81200 87700.74585 91777.29024
    26.81600 87703.87703 90942.96250
    26.82000 87707.75412 92448.31510
    26.82400 87712.30648 93721.02626
    26.82800 87717.70789 93189.48594
    26.83200 87724.01148 93052.39088
    26.83600 87731.22069 93001.97932
    26.84000 87739.29522 93016.16686
    26.84400 87748.47292 92787.82518
    26.84800 87758.17197 93924.96291
    26.85200 87769.52722 92965.42838
    26.85600 87781.70442 91971.09704
    26.86000 87795.49883 91841.07030
    26.86400 87810.60414 95390.66639
    26.86800 87827.09487 93637.75632
    26.87200 87845.05166 93794.06263
    26.87600 87864.56928 93018.50099
    26.88000 87885.78697 97219.61898
    26.88400 87908.71068 89973.91152
    26.88800 87933.48162 92694.37517
    26.89200 87960.23576 91728.52559
    26.89600 87989.10494 92212.48934
    26.90000 88020.23279 94029.06450
    26.90400 88053.77606 93287.55769
    26.90800 88089.90603 92799.76546
    26.91200 88128.81013 92431.49254
    26.91600 88170.69376 93128.98561
    26.92000 88215.78237 91454.96482
    26.92400 88264.32392 94284.05544
    26.92800 88316.59214 88068.04797
    26.93200 88372.89927 93595.64765
    26.93600 88433.61750 93493.53358
    26.94000 88499.09010 92373.85768
    26.94400 88569.73805 92899.50267
    26.94800 88646.02587 96121.17910
    26.95200 88728.23832 93225.50000
    26.95600 88817.11335 94339.86354
    26.96000 88913.28197 92696.91844
    26.96400 89017.45100 94598.24414
    26.96800 89130.41745 92755.64073
    26.97200 89253.08592 93660.84542
    26.97600 89386.42396 94426.49511
    26.98000 89531.60267 91916.70050
    26.98400 89689.93692 94549.86674
    26.98800 89862.92899 93747.11354
    26.99200 90052.01115 92885.43017
    26.99600 90259.17856 92637.19541
    27.00000 90486.45869 92524.43657
    27.00400 90736.30944 95004.59984
    27.00800 91011.49961 97393.94403
    27.01200 91315.22982 94052.54424
    27.01600 91650.76289 95413.06638
    27.02000 92021.94841 96270.04691
    27.02400 92433.27835 96672.38977
    27.02800 92889.65007 97157.87967
    27.03200 93396.46994 96744.80970
    27.03600 93959.66939 95460.80618
    27.04000 94585.68308 97645.35288
    27.04400 95281.38796 98129.54306
    27.04800 96053.98483 96582.80970
    27.05200 96910.79417 97468.67289
    27.05600 97858.93190 99341.93282
    27.06000 98904.81790 99536.62027
    27.06400 100053.46630 97875.35394
    27.06800 101307.51387 102707.74780
    27.07200 102665.97393 99782.86404
    27.07600 104122.77969 104359.32291
    27.08000 105665.29485 101826.08318
    27.08400 107273.13305 103918.00347
    27.08800 108917.72228 103723.41310
    27.09200 110562.96090 105263.65462
    27.09600 112167.24524 108264.00467
    27.10000 113685.84310 110951.90776
    27.10400 115074.03896 111850.00325
    27.10800 116288.05787 109512.21888
    27.11200 117285.72140 116126.58438
    27.11600 118026.12932 113985.85647
    27.12000 118473.33144 118580.78298
    27.12400 118600.50116 116716.19062
    27.12800 118393.87687 118595.36769
    27.13200 117851.77505 106229.04772
    27.13600 116980.68001 112759.67377
    27.14000 115798.84557 106132.92189
    27.14400 114341.70633 109923.90192
    27.14800 112661.49035 104839.48974
    27.15200 110821.86879 105534.46695
    27.15600 108891.06166 101919.23754
    27.16000 106935.31703 97251.98134
    27.16400 105012.99486 97238.84702
    27.16800 103173.05926 95635.07918
    27.17200 101457.01548 89279.54478
    27.17600 99896.08391 89180.07676
    27.18000 98504.79403 87814.62117
    27.18400 97280.20816 90436.23028
    27.18800 96208.37276 95328.35128
    27.19200 95271.40996 85757.61194
    27.19600 94450.89411 92109.64606
    27.20000 93730.10354 87519.81663
    27.20400 93095.19578 91317.17782
    27.20800 92533.80242 87040.71695
    27.21200 92035.61952 87523.89392
    27.21600 91591.85416 88547.85981
    27.22000 91195.20961 87189.04371
    27.22400 90839.50461 82036.29105
    27.22800 90519.50447 83708.64232
    27.23200 90230.76906 86177.00586
    27.23600 89969.52278 86262.28518
    27.24000 89732.54814 85276.76246
    27.24400 89517.26138 83287.51919
    27.24800 89322.26395 90760.62367
    27.25200 89145.06379 82404.66720
    27.25600 88981.43122 85482.74467
    27.26000 88831.75276 81131.20895
    27.26400 88694.75448 85546.14286
    27.26800 88569.34202 89962.84861
    27.27200 88454.57645 85030.65085
    27.27600 88349.65440 84273.81503
    27.28000 88253.89203 85320.34328
    27.28400 88166.71189 83597.66427
    27.28800 88087.65666 82131.76546
    27.29200 88016.44672 83880.20895
    27.29600 87952.44935 81783.32196
    27.30000 87895.63538 82202.26965
    27.30400 87845.85666 79930.54957
    27.30800 87803.05019 82142.01226
    27.31200 87767.10373 79567.64828
    27.31600 87738.04383 85875.16845
    27.32000 87716.07286 85865.02509
    27.32400 87701.40689 83259.99075
    27.32800 87694.34815 82820.09330
    27.33200 87695.29212 84813.57052
    27.33600 87704.73623 81219.95509
    27.34000 87723.29054 82069.15199
    27.34400 87751.69027 84579.85549
    27.34800 87790.81056 83080.97728
    27.35200 87841.68257 83434.78583
    27.35600 87905.51048 82566.46921
    27.36000 87983.71330 80501.46511
    27.36400 88078.01813 82661.30798
    27.36800 88190.01073 82444.02616
    27.37200 88321.58609 82279.85831
    27.37600 88475.01818 81604.95333
    27.38000 88652.53304 78651.41338
    27.38400 88856.34731 79230.05972
    27.38800 89088.53187 78593.14255
    27.39200 89350.82371 81672.00939
    27.39600 89644.26390 81815.82027
    27.40000 89968.63929 82954.75763
    27.40400 90321.60320 83649.77610
    27.40800 90696.94334 82496.36299
    27.41200 91083.12395 82473.02494
    27.41600 91460.82366 85204.99254
    27.42000 91807.14617 83149.83783
    27.42400 92094.38175 82931.58246
    27.42800 92297.52829 83849.37900
    27.43200 92398.32385 84521.37314
    27.43600 92386.86028 89377.45561
    27.44000 92261.36691 86918.36665
    27.44400 92027.46323 85477.75218
    27.44800 91697.92681 86569.08268
    27.45200 91292.77338 86882.19390
    27.45600 90838.93676 86292.84086
    27.46000 90367.22755 86567.69377
    27.46400 89899.26229 81766.54366
    27.46800 89458.91057 85879.87611
    27.47200 89059.20838 80814.27079
    27.47600 88705.54047 82576.85727
    27.48000 88397.97758 81261.47779
    27.48400 88133.49225 82488.32224
    27.48800 87907.57635 82993.42997
    27.49200 87715.40003 80140.33073
    27.49600 87551.80059 80772.42413
    27.50000 87413.12848 81781.53644
    27.50400 87296.39184 81281.78798
    27.50800 87197.75253 80071.24247
    27.51200 87114.71203 79945.50720
    27.51600 87044.51112 82851.78456
    27.52000 86986.72976 82308.68958
    27.52400 86939.29202 80135.26793
    27.52800 86901.08883 81442.47846
    27.53200 86871.24425 82116.70116
    27.53600 86849.07543 81867.46901
    27.54000 86834.05989 80132.20553
    27.54400 86825.80985 77864.58026
    27.54800 86824.05266 84148.05147
    27.55200 86828.62749 84400.98721
    27.55600 86839.52124 86396.59530
    27.56000 86856.60204 84125.40315
    27.56400 86879.96084 85953.04583
    27.56800 86909.79420 85658.80644
    27.57200 86946.33630 84374.80466
    27.57600 86989.90188 82611.64238
    27.58000 87040.89102 89266.98513
    27.58400 87099.79602 84433.76455
    27.58800 87167.21848 85758.02647
    27.59200 87243.90136 83557.02371
    27.59600 87330.59517 87700.00317
    27.60000 87428.30214 83716.73483
    27.60400 87538.17586 85849.09885
    27.60800 87661.54303 85742.14755
    27.61200 87799.94327 83144.47156
    27.61600 87955.15982 86181.70181
    27.62000 88129.25443 83661.81549
    27.62400 88324.60715 85555.19240
    27.62800 88543.96134 82187.60502
    27.63200 88790.47499 82909.11351
    27.63600 89067.77767 82852.49621
    27.64000 89380.03421 85996.74563
    27.64400 89732.01434 85815.02017
    27.64800 90129.16591 84720.45874
    27.65200 90577.68713 87543.29467
    27.65600 91084.59119 86262.34719
    27.66000 91657.74912 84829.44129
    27.66400 92305.89619 87921.22196
    27.66800 93038.58467 87680.18348
    27.67200 93866.00920 88203.95610
    27.67600 94798.82745 89727.17305
    27.68000 95847.86316 90469.78886
    27.68400 97023.74322 92438.06022
    27.68800 98336.56889 94644.91597
    27.69200 99795.53447 93889.31622
    27.69600 101408.25706 95437.60893
    27.70000 103179.28203 97689.03665
    27.70400 105107.05761 100911.61813
    27.70800 107178.54841 105851.05451
    27.71200 109364.15032 104447.53818
    27.71600 111614.25649 103430.53127
    27.72000 113859.61005 108303.26661
    27.72400 116011.54218 112528.37852
    27.72800 117954.48419 116789.85093
    27.73200 119538.14398 112817.03856
    27.73600 120596.22361 117363.42853
    27.74000 120997.39285 116817.52133
    27.74400 120687.48269 115758.15908
    27.74800 119690.06643 113936.52707
    27.75200 118083.82760 114011.92651
    27.75600 115976.18971 113469.73651
    27.76000 113490.07552 109743.94459
    27.76400 110765.73497 106783.22184
    27.76800 107969.44923 105684.97335
    27.77200 105283.58680 102864.22083
    27.77600 102864.32484 99531.24469
    27.78000 100797.33270 96111.09084
    27.78400 99095.85742 96630.25566
    27.78800 97727.55730 96153.24990
    27.79200 96641.69381 89487.33481
    27.79600 95784.71865 90696.23294
    27.80000 95106.96404 95000.68819
    27.80400 94565.06621 95490.80464
    27.80800 94122.89781 92095.23782
    27.81200 93752.22878 94343.76727
    27.81600 93433.56326 92169.92295
    27.82000 93157.45389 93234.78999
    27.82400 92927.00001 92210.55229
    27.82800 92763.52622 97104.58602
    27.83200 92721.48598 94014.70166
    27.83600 92929.54620 99044.22788
    27.84000 93679.95867 95713.53543
    27.84400 95450.54429 98996.46207
    27.84800 98332.65375 101837.62615
    27.85200 101189.92360 101336.63266
    27.85600 102785.05811 105967.12693
    27.86000 103352.64310 107315.24580
    27.86400 103390.49577 103968.32898
    27.86800 103105.05284 104896.72622
    27.87200 102494.52493 104183.71442
    27.87600 101358.81017 100637.32358
    27.88000 99269.16792 99951.27144
    27.88400 95983.00155 98646.19272
    27.88800 92401.35664 97762.25162
    27.89200 89939.91122 91841.09559
    27.89600 88609.97849 90123.81117
    27.90000 87852.94817 89790.99334
    27.90400 87366.46554 89730.29392
    27.90800 87022.15062 87861.21792
    27.91200 86762.66789 85527.29445
    27.91600 86558.85605 86304.05983
    27.92000 86393.91420 87376.77421
    27.92400 86257.53724 88977.23219
    27.92800 86143.05349 85937.88420
    27.93200 86045.97011 86145.38763
    27.93600 85963.08172 85694.12802
    27.94000 85892.13433 86820.82647
    27.94400 85831.75940 87025.12388
    27.94800 85782.99145 87483.22772
    27.95200 85746.17600 86036.10131
    27.95600 85710.24895 87973.13947
    27.96000 85681.27926 84485.98840
    27.96400 85658.92103 86761.40519
    27.96800 85642.95364 86817.34158
    27.97200 85633.26520 86095.82700
    27.97600 85629.82911 87855.21011
    27.98000 85632.73554 85547.10226
    27.98400 85642.03542 87293.33645
    27.98800 85658.22565 83167.26010
    27.99200 85681.52273 87359.98536
    27.99600 85712.36555 87211.68868
    28.00000 85751.29359 85583.16288
    28.00400 85798.95476 86024.76348
    28.00800 85856.11477 84961.01678
    28.01200 85923.66775 84774.88149
    28.01600 86002.64793 88489.79422
    28.02000 86094.24152 87192.28438
    28.02400 86199.79772 89156.15739
    28.02800 86320.83781 87684.47377
    28.03200 86459.05951 86702.14419
    28.03600 86616.33812 87142.77031
    28.04000 86794.72592 88151.25480
    28.04400 86996.32660 87670.77591
    28.04800 87223.39738 87162.66258
    28.05200 87478.19242 87882.08336
    28.05600 87762.73205 84829.18482
    28.06000 88078.68217 86689.86480
    28.06400 88427.19439 85927.17354
    28.06800 88808.56402 87035.44827
    28.07200 89221.94685 85443.85108
    28.07600 89664.20720 85561.18722
    28.08000 90130.34572 87169.88865
    28.08400 90613.66247 90685.64876
    28.08800 91101.12279 89883.31521
    28.09200 91579.76935 92307.70226
    28.09600 92033.96393 89762.04356
    28.10000 92447.44484 90114.03649
    28.10400 92806.22923 91017.52279
    28.10800 93101.64005 91721.51386
    28.11200 93333.95539 92446.15233
    28.11600 93516.93379 91870.66447
    28.12000 93684.22982 95152.21014
    28.12400 93903.76698 94041.81047
    28.12800 94313.16434 95436.09957
    28.13200 95199.20974 100391.88309
    28.13600 97091.20684 102465.61794
    28.14000 100477.27766 102577.68855
    28.14400 104516.25963 106718.98908
    28.14800 107294.18481 110530.50144
    28.15200 108566.85836 111913.12442
    28.15600 108919.16380 109132.22237
    28.16000 108726.07939 113313.33834
    28.16400 108085.76762 113926.64931
    28.16800 106860.02423 109511.04880
    28.17200 104631.71767 108956.71429
    28.17600 100876.87760 104314.69762
    28.18000 96091.53021 98983.61205
    28.18400 92240.41454 95113.95206
    28.18800 89940.27944 91821.14205
    28.19200 88622.13176 88742.85025
    28.19600 87809.68194 91607.61836
    28.20000 87264.16434 86723.72809
    28.20400 86875.15227 86473.50892
    28.20800 86586.87356 84965.06370
    28.21200 86369.85639 84759.12846
    28.21600 86205.28127 87030.02603
    28.22000 86081.67351 85932.22168
    28.22400 85991.51518 83138.70649
    28.22800 85929.85041 84294.71093
    28.23200 85893.04358 85509.59564
    28.23600 85878.94821 83670.06498
    28.24000 85886.10169 80560.36298
    28.24400 85913.43641 84040.39349
    28.24800 85960.30088 85017.93950
    28.25200 86026.16320 83377.87091
    28.25600 86110.47969 84638.31584
    28.26000 86212.52243 80669.23711
    28.26400 86331.19988 82494.53163
    28.26800 86464.88653 83956.81296
    28.27200 86611.29897 84133.94010
    28.27600 86767.50743 86177.53577
    28.28000 86930.17346 85457.16217
    28.28400 87095.23527 83379.10092
    28.28800 87259.63086 85869.18397
    28.29200 87421.19547 85560.34706
    28.29600 87579.46991 87263.78752
    28.30000 87735.98718 89909.48478
    28.30400 87893.78594 84998.13796
    28.30800 88055.60415 87469.66667
    28.31200 88219.90909 84835.61782
    28.31600 88377.40791 85811.67060
    28.32000 88509.21564 85030.60836
    28.32400 88593.58933 86006.54788
    28.32800 88612.17192 85816.67212
    28.33200 88555.53907 88002.75000
    28.33600 88422.49345 84353.04654
    28.34000 88215.22012 86914.51011
    28.34400 87938.35904 87872.02427
    28.34800 87600.25342 87205.47125
    28.35200 87216.35797 87504.96546
    28.35600 86810.80330 86022.41161
    28.36000 86412.02018 83578.56800
    28.36400 86043.94447 82062.59878
    28.36800 85719.92822 85348.38604
    28.37200 85443.05305 84470.41978
    28.37600 85210.03703 84760.91028
    28.38000 85014.97379 82507.10736
    28.38400 84851.56320 85074.73935
    28.38800 84714.10296 84317.18799
    28.39200 84597.80053 82203.71069
    28.39600 84498.78226 84381.08653
    28.40000 84413.99692 80514.53525
    28.40400 84341.05683 82105.20276
    28.40800 84278.02269 83816.17678
    28.41200 84223.48771 86162.80923
    28.41600 84176.31651 85600.80618
    28.42000 84135.61672 85332.47228
    28.42400 84100.68313 85243.42146
    28.42800 84070.95687 83055.18463
    28.43200 84045.99554 83055.27609
    28.43600 84025.45174 82262.74076
    28.44000 84009.05735 80614.01491
    28.44400 83996.61210 82025.60250
    28.44800 83987.97522 81847.75288
    28.45200 83983.06358 78545.78568
    28.45600 83981.86702 78289.98604
    28.46000 83984.35215 80681.43797
    28.46400 83990.55657 80379.65617
    28.46800 84000.62631 82220.60224
    28.47200 84014.83356 78361.47555
    28.47600 84033.17152 81214.40682
    28.48000 84055.57493 80033.21170
    28.48400 84081.97752 81019.18504
    28.48800 84111.47732 76107.38800
    28.49200 84147.81316 75704.94089
    28.49600 84191.34250 78763.36828
    28.50000 84241.14072 77615.40166
    28.50400 84297.75145 78616.27955
    28.50800 84361.75396 80976.09553
    28.51200 84433.77387 82356.25719
    28.51600 84514.47589 82417.83002
    28.52000 84604.55227 83560.39348
    28.52400 84704.73122 85111.27449
    28.52800 84815.84611 84116.19480
    28.53200 84938.35233 81673.90358
    28.53600 85072.56787 84226.28887
    28.54000 85219.04075 83580.07783
    28.54400 85377.84695 82805.35410
    28.54800 85548.36716 87852.39640
    28.55200 85731.04701 84782.14451
    28.55600 85924.42247 85264.20487
    28.56000 86127.28191 84908.72124
    28.56400 86338.39822 85847.29388
    28.56800 86556.48214 84363.61546
    28.57200 86781.01042 87652.83212
    28.57600 87012.92030 86109.17483
    28.58000 87254.87263 87395.63458
    28.58400 87511.82899 87216.88680
    28.58800 87791.12840 85713.00655
    28.59200 88101.70664 87825.66751
    28.59600 88451.65148 88184.75196
    28.60000 88843.26168 88842.35856
    28.60400 89266.33474 89213.55905
    28.60800 89694.37708 88832.00856
    28.61200 90089.81443 86280.75663
    28.61600 90417.79568 88667.51650
    28.62000 90656.22088 90856.48116
    28.62400 90796.84102 93899.08890
    28.62800 90839.93451 91424.89362
    28.63200 90790.38456 90628.37546
    28.63600 90658.46138 90071.51378
    28.64000 90464.61240 94111.15948
    28.64400 90243.47897 89372.00612
    28.64800 90039.95868 89456.90032
    28.65200 89896.17926 88696.40784
    28.65600 89839.06001 90801.63907
    28.66000 89877.56784 92002.70789
    28.66400 90007.85911 91189.62785
    28.66800 90219.44342 92642.07075
    28.67200 90500.47308 91764.86200
    28.67600 90839.41400 91476.41842
    28.68000 91228.34734 92075.92487
    28.68400 91665.85534 92412.97179
    28.68800 92161.41456 91381.44715
    28.69200 92741.91697 93735.44530
    28.69600 93463.27897 96476.08624
    28.70000 94433.78741 99010.40225
    28.70400 95865.94559 99475.19035
    28.70800 98181.70784 102900.29171
    28.71200 102157.08923 111542.23077
    28.71600 108822.74725 120627.45088
    28.72000 118311.59118 132347.57573
    28.72400 128123.74769 140715.07361
    28.72800 134987.47638 146774.87942
    28.73200 138616.61653 150959.23093
    28.73600 140079.37046 149385.97285
    28.74000 140044.10434 142111.44592
    28.74400 138593.92800 142305.60554
    28.74800 135256.36388 133883.42640
    28.75200 129126.16493 130067.83375
    28.75600 119819.57457 119389.12372
    28.76000 109350.33660 117854.99095
    28.76400 101226.24420 111993.64952
    28.76800 96272.93247 105607.96096
    28.77200 93393.42733 101059.79904
    28.77600 91655.50040 99092.21134
    28.78000 90551.36483 96562.19760
    28.78400 89827.43197 95237.30157
    28.78800 89353.52873 93738.78520
    28.79200 89056.97795 94720.38435
    28.79600 88894.41206 93095.61485
    28.80000 88839.68238 93173.94490
    28.80400 88876.22039 92913.54864
    28.80800 88993.72222 91634.78174
    28.81200 89185.97757 94256.24887
    28.81600 89449.48759 92081.16553
    28.82000 89782.50227 91673.01703
    28.82400 90184.26302 90762.68299
    28.82800 90654.31725 93529.40964
    28.83200 91191.79746 93790.53118
    28.83600 91794.61141 94812.55395
    28.84000 92459.05101 96386.25712
    28.84400 93178.15377 93598.43199
    28.84800 93941.49977 94031.00518
    28.85200 94734.53872 95746.87061
    28.85600 95538.47304 96984.61432
    28.86000 96330.08680 95881.28427
    28.86400 97084.53788 97184.79847
    28.86800 97769.66013 96397.96061
    28.87200 98363.10053 101833.88395
    28.87600 98831.94603 100206.86305
    28.88000 99148.71905 102877.07615
    28.88400 99290.73149 100166.39393
    28.88800 99243.36610 101317.51025
    28.89200 99002.58039 99849.56662
    28.89600 98575.63075 99757.84988
    28.90000 97979.95555 99165.23663
    28.90400 97241.01547 98094.33671
    28.90800 96390.02229 98465.48492
    28.91200 95461.78589 95626.71441
    28.91600 94492.57631 98075.46464
    28.92000 93517.65545 95618.45355
    28.92400 92568.02747 95030.08464
    28.92800 91667.89313 93423.78423
    28.93200 90833.36967 92890.85813
    28.93600 90073.23760 89836.25446
    28.94000 89389.99812 91755.74062
    28.94400 88782.15268 90296.92441
    28.94800 88245.79010 92061.04033
    28.95200 87776.08724 90239.89220
    28.95600 87367.63901 90445.32872
    28.96000 87016.91623 88399.50746
    28.96400 86720.16842 88503.23742
    28.96800 86475.72011 89845.25339
    28.97200 86284.17882 90588.94464
    28.97600 86149.49588 90809.49516
    28.98000 86080.93605 90008.12377
    28.98400 86097.03648 91742.80916
    28.98800 86233.40074 87716.07103
    28.99200 86556.05217 90607.58687
    28.99600 87177.34230 92315.55847
    29.00000 88247.00453 94199.07133
    29.00400 89825.88943 97105.78704
    29.00800 91624.04622 96783.32739
    29.01200 93109.12503 94536.20468
    29.01600 94041.52217 99723.95986
    29.02000 94490.82492 98032.67128
    29.02400 94572.89536 98537.69284
    29.02800 94333.50671 98606.98376
    29.03200 93729.81703 100813.76708
    29.03600 92646.41074 97881.40333
    29.04000 91003.89115 97296.30024
    29.04400 89022.55441 96546.04718
    29.04800 87231.14901 94145.12723
    29.05200 85935.66000 93760.78423
    29.05600 85085.02270 90762.60788
    29.06000 84527.96136 90982.13468
    29.06400 84147.62425 91163.32345
    29.06800 83873.67342 89260.19856
    29.07200 83666.59606 86689.96993
    29.07600 83504.05396 88685.80463
    29.08000 83372.80387 89579.46395
    29.08400 83264.12229 88778.82140
    29.08800 83172.59189 89063.07058
    29.09200 83094.68536 86726.50747
    29.09600 83028.14789 88688.81971
    29.10000 82968.79647 86782.07533
    29.10400 82916.42140 90103.93454
    29.10800 82869.88452 87698.70212
    29.11200 82828.30666 88711.19706
    29.11600 82790.99843 86936.51397
    29.12000 82757.41214 87678.74889
    29.12400 82727.10767 87490.85112
    29.12800 82699.73538 86486.13666
    29.13200 82675.05756 88263.51002
    29.13600 82652.79077 87393.93189
    29.14000 82632.62524 89141.68592
    29.14400 82614.48411 87581.14032
    29.14800 82598.24017 88182.33156
    29.15200 82583.85803 87895.12670
    29.15600 82571.12001 86359.97839
    29.16000 82559.89675 83275.24242
    29.16400 82550.19809 85351.64520
    29.16800 82541.97184 84916.04460
    29.17200 82535.20169 86650.86402
    29.17600 82529.91188 88662.14054
    29.18000 82525.90415 86014.86925
    29.18400 82523.21726 85389.64633
    29.18800 82521.90720 86175.94633
    29.19200 82521.99240 84582.29384
    29.19600 82523.33965 86049.59623
    29.20000 82526.02965 85792.16901
    29.20400 82530.11477 85742.42900
    29.20800 82535.57969 87686.77300
    29.21200 82542.47975 86427.47929
    29.21600 82550.84680 87427.88040
    29.22000 82560.82670 84578.78680
    29.22400 82572.30122 84897.06040
    29.22800 82585.34523 86773.25963
    29.23200 82600.08113 86417.04292
    29.23600 82616.58664 85728.72272
    29.24000 82634.94917 88455.05137
    29.24400 82655.26650 88366.95636
    29.24800 82677.64764 88019.44339
    29.25200 82702.21392 85787.02833
    29.25600 82729.09988 89497.99920
    29.26000 82758.45463 88210.97100
    29.26400 82790.44317 87441.33644
    29.26800 82825.24773 89242.53220
    29.27200 82863.05811 87548.00878
    29.27600 82904.06998 88355.40420
    29.28000 82948.28779 89610.00602
    29.28400 82996.58831 89887.08728
    29.28800 83048.94012 88148.11034
    29.29200 83105.67073 89226.21250
    29.29600 83167.14080 90634.58891
    29.30000 83233.74739 88651.00000
    29.30400 83305.92761 88048.39952
    29.30800 83384.16259 89056.92123
    29.31200 83468.98179 88519.17620
    29.31600 83560.96771 90438.68204
    29.32000 83660.73680 88184.12427
    29.32400 83769.01937 90446.06681
    29.32800 83886.37357 90009.11416
    29.33200 84014.09375 90936.02882
    29.33600 84152.87437 90979.41228
    29.34000 84303.73110 89687.98277
    29.34400 84467.77375 89932.90465
    29.34800 84646.21814 89579.89461
    29.35200 84840.36079 91967.32225
    29.35600 85051.61795 91364.11419
    29.36000 85281.52373 91102.31213
    29.36400 85531.65833 90745.37458
    29.36800 85803.81623 90020.59079
    29.37200 86099.19729 90350.36770
    29.37600 86421.10547 91937.88623
    29.38000 86770.78988 89131.61561
    29.38400 87150.33376 91830.51901
    29.38800 87561.58503 95188.43608
    29.39200 88006.84976 93897.00306
    29.39600 88487.84008 93036.26829
    29.40000 89006.28392 94969.36748
    29.40400 89563.73225 92812.06601
    29.40800 90161.57266 92933.78526
    29.41200 90801.12543 95341.94517
    29.41600 91483.86230 95090.70490
    29.42000 92210.89463 95610.61176
    29.42400 92983.78106 101993.44844
    29.42800 93803.91650 101124.59965
    29.43200 94671.50129 99649.71117
    29.43600 95584.15248 99108.64715
    29.44000 96534.88921 100835.45397
    29.44400 97509.83306 99790.57823
    29.44800 98485.62691 103564.48844
    29.45200 99426.20958 104052.19983
    29.45600 100280.07991 105365.04205
    29.46000 100981.58016 106589.61201
    29.46400 101460.65778 106892.14353
    29.46800 101658.94126 103782.47010
    29.47200 101542.82927 103115.08221
    29.47600 101106.85766 104102.88968
    29.48000 100369.34492 103010.05383
    29.48400 99366.51900 102581.86433
    29.48800 98149.33704 103485.64135
    29.49200 96782.51339 102782.66498
    29.49600 95343.35908 102350.26723
    29.50000 93913.11960 94888.99775
    29.50400 92562.06029 95988.00248
    29.50800 91336.84740 95963.13390
    29.51200 90257.68550 95083.59287
    29.51600 89324.33171 92048.47170
    29.52000 88524.76577 90448.86163
    29.52400 87842.10429 91229.14100
    29.52800 87258.33980 90923.23978
    29.53200 86751.82088 91175.87698
    29.53600 86324.01080 88765.36642
    29.54000 85954.95234 88684.10524
    29.54400 85635.10936 91157.89401
    29.54800 85356.72349 89132.23270
    29.55200 85113.52661 85742.53654
    29.55600 84900.46764 89445.86264
    29.56000 84713.47338 89297.35901
    29.56400 84549.24901 86857.67642
    29.56800 84405.11782 87773.60820
    29.57200 84278.89827 89770.44093
    29.57600 84168.83607 87914.47445
    29.58000 84073.57519 89189.64759
    29.58400 83991.77116 90164.30601
    29.58800 83922.31693 86465.49069
    29.59200 83864.54371 89793.38921
    29.59600 83817.98022 86506.92815
    29.60000 83781.69473 86820.43049
    29.60400 83756.33945 87631.59860
    29.60800 83741.30834 87026.26956
    29.61200 83736.59156 87581.98503
    29.61600 83742.33426 86412.87457
    29.62000 83758.82139 85949.42283
    29.62400 83786.48797 85972.15026
    29.62800 83825.93365 88296.31799
    29.63200 83877.95219 86287.01863
    29.63600 83943.51670 88876.29545
    29.64000 84023.76397 91079.01570
    29.64400 84120.20016 89070.60287
    29.64800 84234.65220 88138.11995
    29.65200 84368.34655 86186.98909
    29.65600 84525.21623 85570.65726
    29.66000 84707.43208 89192.20373
    29.66400 84918.32848 86834.25175
    29.66800 85161.75054 87082.55029
    29.67200 85441.93856 89016.38807
    29.67600 85763.62562 89550.41577
    29.68000 86131.97211 89692.71581
    29.68400 86552.34185 90174.11900
    29.68800 87030.09720 88143.42842
    29.69200 87570.23499 89419.84603
    29.69600 88176.83644 88870.52795
    29.70000 88852.24308 91040.22086
    29.70400 89595.84312 90780.00080
    29.70800 90402.37159 92447.81767
    29.71200 91259.78768 92398.24801
    29.71600 92147.15077 92110.83342
    29.72000 93033.40304 93574.48247
    29.72400 93878.19593 93584.40923
    29.72800 94635.38239 94594.61229
    29.73200 95258.52853 95441.36119
    29.73600 95706.70849 96956.37786
    29.74000 95949.45079 94658.39675
    29.74400 95969.98567 98811.91456
    29.74800 95767.28366 95331.03859
    29.75200 95356.62208 93711.23663
    29.75600 94768.51222 94441.95157
    29.76000 94045.79285 93037.42390
    29.76400 93238.81440 93701.56774
    29.76800 92399.34298 92102.35338
    29.77200 91574.73215 90612.05727
    29.77600 90802.86964 89602.85354
    29.78000 90110.64652 89578.67441
    29.78400 89513.60313 89495.90101
    29.78800 89016.78768 90676.00646
    29.79200 88617.34246 91001.19062
    29.79600 88306.95611 91156.12417
    29.80000 88074.39067 89078.82531
    29.80400 87907.22677 87470.13630
    29.80800 87793.06330 90803.72060
    29.81200 87720.64241 88506.01897
    29.81600 87683.20156 86214.08922
    29.82000 87679.20818 88648.25599
    29.82400 87715.52468 89677.46553
    29.82800 87811.05550 89789.31746
    29.83200 88001.26850 89507.23867
    29.83600 88340.71729 88507.11497
    29.84000 88893.68854 91565.97153
    29.84400 89689.35097 90688.08422
    29.84800 90640.53589 91356.64441
    29.85200 91534.80623 93864.94829
    29.85600 92180.21573 93493.34380
    29.86000 92521.16548 93845.21453
    29.86400 92587.13707 95930.66897
    29.86800 92408.38390 91347.85698
    29.87200 91983.17946 92992.81373
    29.87600 91281.64931 89623.91057
    29.88000 90286.99600 94039.48989
    29.88400 89078.03552 88621.37534
    29.88800 87862.11534 91583.20731
    29.89200 86848.34443 89683.45178
    29.89600 86108.59479 89226.15939
    29.90000 85604.20536 85360.07719
    29.90400 85271.33751 85498.70739
    29.90800 85058.43283 86777.85045
    29.91200 84930.07415 84223.94171
    29.91600 84864.82555 84489.09792
    29.92000 84848.91206 85499.73549
    29.92400 84874.18535 84614.85228
    29.92800 84935.83598 83047.45822
    29.93200 85031.21170 86421.63189
    29.93600 85159.13134 85831.16099
    29.94000 85319.43303 85084.78440
    29.94400 85512.90053 83275.22778
    29.94800 85740.72549 83475.07704
    29.95200 86005.46902 81318.86784
    29.95600 86309.53069 83670.84098
    29.96000 86656.15438 83990.70295
    29.96400 87048.97684 81136.91488
    29.96800 87492.88558 85164.85817
    29.97200 87991.21779 83312.59143
    29.97600 88553.70630 84376.98564
    29.98000 89185.35544 86479.49077
    29.98400 89893.30652 90448.50626
    29.98800 90685.25451 89729.47076
    29.99200 91567.21360 89129.79601
    29.99600 92544.16577 91146.73468
    30.00000 93613.23676 90791.71474
    30.00400 94761.18668 90512.83078
    30.00800 95954.55732 90992.64227
    30.01200 97136.44362 92611.32970
    30.01600 98224.28691 95420.38541
    30.02000 99123.77546 97900.65465
    30.02400 99750.14712 96806.01011
    30.02800 100045.05715 97270.59169
    30.03200 99981.02277 96325.34939
    30.03600 99557.12568 98422.70615
    30.04000 98794.24232 98275.30618
    30.04400 97734.60490 99390.46767
    30.04800 96444.42159 95511.68805
    30.05200 95012.82819 95405.02637
    30.05600 93540.11047 93963.22948
    30.06000 92116.95447 92157.67926
    30.06400 90806.89167 90726.40875
    30.06800 89642.05234 85131.39127
    30.07200 88629.22621 88800.93880
    30.07600 87760.06303 84721.69949
    30.08000 87018.62764 84632.92277
    30.08400 86388.01116 83082.60846
    30.08800 85851.58163 87359.79940
    30.09200 85393.69582 79093.86692
    30.09600 85001.27494 80886.35782
    30.10000 84663.33747 85952.35161
    30.10400 84370.80083 81429.02398
    30.10800 84116.21826 78914.55218
    30.11200 83893.51008 79912.72749
    30.11600 83697.71031 78941.50153
    30.12000 83524.77802 81454.06839
    30.12400 83371.34154 78795.83243
    30.12800 83234.75746 78730.60344
    30.13200 83112.71699 80341.48378
    30.13600 83003.33856 85708.83684
    30.14000 82905.04302 82192.08402
    30.14400 82816.51887 79972.51859
    30.14800 82736.60151 77964.45900
    30.15200 82664.42972 78727.26324
    30.15600 82599.15107 81168.13342
    30.16000 82540.07795 78703.98696
    30.16400 82486.65348 77023.40578
    30.16800 82438.39108 78719.42416
    30.17200 82394.67730 80536.07892
    30.17600 82355.24186 80610.89034
    30.18000 82319.75808 78505.80473
    30.18400 82287.94513 80593.42374
    30.18800 82259.56085 79892.82057
    30.19200 82234.40267 81692.80942
    30.19600 82212.28397 79233.62998
    30.20000 82193.09091 76747.34096
    30.20400 82176.69224 76613.43608
    30.20800 82162.99737 78444.91747
    30.21200 82151.93979 75048.29199
    30.21600 82143.47640 74637.93194
    30.22000 82137.58705 75777.96114
    30.22400 82134.27526 77012.00277
    30.22800 82133.56996 74113.09770
    30.23200 82135.46065 78102.40298
    30.23600 82139.82089 78951.97284
    30.24000 82146.29414 78738.72718
    30.24400 82156.77088 74431.61552
    30.24800 82170.40171 77295.19430
    30.25200 82187.36682 75870.26262
    30.25600 82207.93795 72877.53774
    30.26000 82232.21072 70988.16716
    30.26400 82260.53977 77941.74491
    30.26800 82293.28123 80504.45754
    30.27200 82330.81357 77309.97578
    30.27600 82373.55638 79657.70137
    30.28000 82421.96253 74504.45329
    30.28400 82476.52139 77111.29811
    30.28800 82537.75368 75580.34318
    30.29200 82606.20245 80874.86291
    30.29600 82682.41880 79972.39713
    30.30000 82766.94731 75012.15997
    30.30400 82860.33660 79312.74467
    30.30800 82962.91447 75928.58078
    30.31200 83074.93183 78112.23224
    30.31600 83196.43503 82418.11143
    30.32000 83327.21638 75481.93399
    30.32400 83466.67906 76458.77642
    30.32800 83613.81695 78364.45460
    30.33200 83767.21437 78963.41443
    30.33600 83925.13079 80512.44291
    30.34000 84085.71741 81685.96643
    30.34400 84247.27321 77023.32144
    30.34800 84408.59977 81312.36332
    30.35200 84569.96361 79883.25499
    30.35600 84733.32863 78473.29092
    30.36000 84904.08124 76098.43729
    30.36400 85091.40055 76361.20471
    30.36800 85310.57758 78245.45861
    30.37200 85586.13402 79971.45755
    30.37600 85955.12835 82586.89061
    30.38000 86471.03672 82576.18000
    30.38400 87205.05704 88019.46260
    30.38800 88235.18230 91889.20229
    30.39200 89603.01351 85386.05723
    30.39600 91229.79174 89112.19430
    30.40000 92869.59502 86657.25749
    30.40400 94229.67074 91583.87596
    30.40800 95152.24542 92008.25339
    30.41200 95622.33692 93021.59040
    30.41600 95668.34411 91048.26564
    30.42000 95298.91082 91674.73516
    30.42400 94494.16649 90882.10529
    30.42800 93242.06562 90133.44424
    30.43200 91621.70879 86464.58291
    30.43600 89868.07251 87364.92325
    30.44000 88280.64220 86630.42774
    30.44400 87032.08231 85146.21304
    30.44800 86127.61667 81473.62018
    30.45200 85498.14484 83277.82859
    30.45600 85069.21582 82661.16229
    30.46000 84782.68635 79190.73494
    30.46400 84598.05548 80232.34735
    30.46800 84488.76305 80026.09067
    30.47200 84437.77258 80723.41390
    30.47600 84434.33899 79802.07987
    30.48000 84471.73934 83052.94091
    30.48400 84545.84598 79869.52124
    30.48800 84654.06190 81087.99920
    30.49200 84795.11634 79589.16124
    30.49600 84968.31706 81357.16529
    30.50000 85173.47545 78768.71154
    30.50400 85410.63335 79046.84216
    30.50800 85679.80148 75884.65644
    30.51200 85980.79100 80695.49534
    30.51600 86313.04444 85377.97560
    30.52000 86675.48636 81869.21871
    30.52400 87066.38572 83033.61144
    30.52800 87483.20353 82292.60767
    30.53200 87922.39093 83769.87304
    30.53600 88379.10887 82889.06095
    30.54000 88846.86263 83560.29647
    30.54400 89317.05944 88800.45614
    30.54800 89778.47156 84196.24408
    30.55200 90216.52131 86000.02957
    30.55600 90612.56003 86170.53868
    30.56000 90943.76493 84379.21134
    30.56400 91185.08475 85208.38844
    30.56800 91313.52093 89215.55690
    30.57200 91312.64311 82900.28108
    30.57600 91176.22210 85069.45679
    30.58000 90907.62944 88149.86928
    30.58400 90518.29406 86402.61299
    30.58800 90026.12836 86678.59880
    30.59200 89454.65152 90784.08241
    30.59600 88832.27869 85386.57897
    30.60000 88190.36095 84475.91243
    30.60400 87559.13054 84004.09877
    30.60800 86962.90612 81763.56719
    30.61200 86417.24301 83256.98073
    30.61600 85929.17692 80989.34931
    30.62000 85499.43068 78629.71493
    30.62400 85124.92515 80648.25474
    30.62800 84800.71468 82713.43713
    30.63200 84521.21616 81609.51145
    30.63600 84280.87547 83801.30312
    30.64000 84074.56265 80052.56441
    30.64400 83897.37968 79362.96939
    30.64800 83746.08862 80033.92838
    30.65200 83616.87791 79008.12709
    30.65600 83506.85999 76621.38780
    30.66000 83413.61918 78931.29233
    30.66400 83335.19944 80304.78556
    30.66800 83270.01311 80101.51038
    30.67200 83216.34027 78344.81070
    30.67600 83173.28160 78031.65721
    30.68000 83139.87812 75861.72630
    30.68400 83115.54073 81884.38564
    30.68800 83099.21894 76691.89191
    30.69200 83091.44682 78738.72741
    30.69600 83091.47063 80696.47645
    30.70000 83099.12702 78805.38126
    30.70400 83114.36344 81556.79691
    30.70800 83137.18806 75630.37673
    30.71200 83167.72892 80600.46828
    30.71600 83206.19490 84348.70314
    30.72000 83252.87566 80393.09608
    30.72400 83308.14386 76974.17950
    30.72800 83372.45533 81553.00370
    30.73200 83446.34972 79161.07821
    30.73600 83530.45134 81212.87124
    30.74000 83625.46958 81477.35303
    30.74400 83732.19844 81712.76751
    30.74800 83851.51420 83283.31661
    30.75200 83984.37055 80862.61661
    30.75600 84131.78995 77491.77780
    30.76000 84294.85078 79718.33360
    30.76400 84474.66950 82139.30327
    30.76800 84672.37835 79482.01305
    30.77200 84889.10075 78436.44715
    30.77600 85125.93690 81394.73403
    30.78000 85383.99892 80451.12904
    30.78400 85664.20751 81960.01774
    30.78800 85967.37556 82261.46352
    30.79200 86294.51446 85660.01044
    30.79600 86646.31050 87335.48722
    30.80000 87023.36111 82927.95686
    30.80400 87425.70874 90060.18809
    30.80800 87852.38919 83814.27077
    30.81200 88300.67432 84448.25119
    30.81600 88765.01673 87911.88850
    30.82000 89235.65412 86757.48269
    30.82400 89696.97976 87116.30210
    30.82800 90126.38964 85605.71606
    30.83200 90494.98496 87718.62179
    30.83600 90771.57173 88385.68930
    30.84000 90928.65773 89792.90844
    30.84400 90947.93078 87689.15974
    30.84800 90822.43306 87209.10751
    30.85200 90555.83345 86391.50213
    30.85600 90160.74522 83866.93592
    30.86000 89657.63964 88204.22600
    30.86400 89074.36384 85923.53382
    30.86800 88444.81547 81286.63392
    30.87200 87805.17383 84269.18989
    30.87600 87188.02907 82217.45983
    30.88000 86617.16361 83955.42775
    30.88400 86105.64258 83052.46888
    30.88800 85657.32701 80266.55591
    30.89200 85269.96392 81555.79165
    30.89600 84938.09821 80312.48402
    30.90000 84655.08802 81493.64829
    30.90400 84414.25591 77077.63464
    30.90800 84209.45085 77287.80591
    30.91200 84035.27076 75516.71089
    30.91600 83887.10750 86594.14480
    30.92000 83761.10587 82634.86895
    30.92400 83654.08478 83364.06256
    30.92800 83563.44584 82331.56531
    30.93200 83487.08287 82374.37663
    30.93600 83423.29929 85603.11635
    30.94000 83370.69184 81859.22236
    30.94400 83328.21814 82985.08898
    30.94800 83294.46438 83889.95611
    30.95200 83270.00656 83015.48429
    30.95600 83253.74149 82234.21861
    30.96000 83245.15913 81972.97934
    30.96400 83244.12703 85074.90582
    30.96800 83250.53954 87908.45052
    30.97200 83264.37959 81712.87143
    30.97600 83285.68221 82932.03714
    30.98000 83314.64845 79540.13138
    30.98400 83351.54053 82170.13631
    30.98800 83396.70551 82001.41959
    30.99200 83450.57418 84102.59068
    30.99600 83513.65798 84941.01066
    31.00000 83586.52905 85251.41822
    31.00400 83669.78705 82578.03064
    31.00800 83763.69892 78991.69454
    31.01200 83870.03375 81927.35317
    31.01600 83988.44050 82387.37479
    31.02000 84121.10360 83172.09544
    31.02400 84267.84109 83727.29108
    31.02800 84429.48258 84189.85854
    31.03200 84606.25185 81925.14583
    31.03600 84798.16081 84277.44429
    31.04000 85004.72654 81153.12969
    31.04400 85224.79461 90546.42276
    31.04800 85456.35200 81984.53262
    31.05200 85696.36035 84021.44114
    31.05600 85940.66496 81529.19971
    31.06000 86184.00380 83108.14940
    31.06400 86420.01558 87996.44937
    31.06800 86641.94929 86363.71798
    31.07200 86842.87689 85364.85472
    31.07600 87016.36774 83941.17877
    31.08000 87156.98536 87853.50253
    31.08400 87260.70942 88334.24446
    31.08800 87325.05839 86673.27696
    31.09200 87348.98351 84540.01062
    31.09600 87332.94680 81066.75452
    31.10000 87277.98084 86184.11362
    31.10400 87187.61561 84981.44953
    31.10800 87065.20738 84127.87368
    31.11200 86915.04580 83988.40414
    31.11600 86742.59214 84246.61326
    31.12000 86553.57668 84442.74386
    31.12400 86353.84381 85475.32053
    31.12800 86149.25799 83567.21411
    31.13200 85945.66950 85309.07176
    31.13600 85748.81994 81906.96778
    31.14000 85564.07601 82146.08695
    31.14400 85396.02562 82841.75846
    31.14800 85248.11781 84760.63459
    31.15200 85122.48747 81003.40503
    31.15600 85020.01986 81653.04581
    31.16000 84940.92776 78372.13034
    31.16400 84885.00117 84784.82075
    31.16800 84852.59282 89284.73005
    31.17200 84845.22031 87767.44751
    31.17600 84866.60868 88365.98216
    31.18000 84923.91558 91275.51076
    31.18400 85028.87347 89561.14287
    31.18800 85199.15827 88316.79671
    31.19200 85457.24147 89402.46482
    31.19600 85824.75572 88566.54061
    31.20000 86305.61371 91336.36654
    31.20400 86860.98204 87646.53710
    31.20800 87405.13577 90795.73340
    31.21200 87846.68284 91010.32665
    31.21600 88134.25278 96608.56454
    31.22000 88258.63832 91502.55430
    31.22400 88225.04717 94161.76401
    31.22800 88034.83899 88169.19203
    31.23200 87684.16148 86361.14583
    31.23600 87178.30364 89812.54114
    31.24000 86556.94825 89127.19375
    31.24400 85904.26950 86590.32490
    31.24800 85314.18750 88282.58249
    31.25200 84839.23615 89980.29308
    31.25600 84482.43966 86445.46339
    31.26000 84222.88596 84785.05090
    31.26400 84036.34436 86743.73497
    31.26800 83902.96895 86187.32877
    31.27200 83807.73000 87494.39332
    31.27600 83740.54419 87150.48015
    31.28000 83694.58045 84995.22919
    31.28400 83665.21708 86825.15840
    31.28800 83649.33404 84821.33285
    31.29200 83644.79776 88762.12680
    31.29600 83650.13343 86175.85203
    31.30000 83664.22362 83133.03012
    31.30400 83686.61001 83570.46592
    31.30800 83716.82829 86093.17627
    31.31200 83754.36121 85966.88412
    31.31600 83799.29323 87884.91716
    31.32000 83851.66611 84293.17279
    31.32400 83911.70473 84218.12008
    31.32800 83979.59380 90046.21853
    31.33200 84055.77481 90598.35710
    31.33600 84140.75286 88888.19428
    31.34000 84235.11863 87007.94202
    31.34400 84339.60513 86244.06377
    31.34800 84454.79291 84328.77317
    31.35200 84582.06898 88084.22486
    31.35600 84722.24556 85316.24006
    31.36000 84876.48120 85530.26688
    31.36400 85046.03156 85028.83931
    31.36800 85232.26379 87396.75121
    31.37200 85436.63387 88563.93229
    31.37600 85660.65327 85117.16850
    31.38000 85905.86277 87007.09943
    31.38400 86173.78018 86226.15498
    31.38800 86465.83641 88431.36239
    31.39200 86783.15734 84678.24813
    31.39600 87126.61422 89353.53127
    31.40000 87496.35004 88697.96918
    31.40400 87891.78779 88800.00453
    31.40800 88311.17690 92295.68363
    31.41200 88751.29365 91789.00499
    31.41600 89207.18288 90737.27743
    31.42000 89672.06253 90720.18221
    31.42400 90137.55446 91137.67928
    31.42800 90594.39751 90284.26476
    31.43200 91033.74299 97436.23331
    31.43600 91449.01720 93039.39051
    31.44000 91838.20765 98058.36123
    31.44400 92206.25016 93278.41329
    31.44800 92567.31677 97627.33801
    31.45200 92946.20161 94721.40867
    31.45600 93377.30219 93793.31942
    31.46000 93897.39234 95780.28856
    31.46400 94525.58177 99174.94838
    31.46800 95230.03315 98005.80776
    31.47200 95910.07375 98588.90344
    31.47600 96437.77970 96975.97369
    31.48000 96728.51238 97962.86778
    31.48400 96758.52454 96377.44042
    31.48800 96534.13811 96824.09510
    31.49200 96063.46385 97565.17717
    31.49600 95349.25170 95013.56679
    31.50000 94402.98182 95541.81413
    31.50400 93276.45061 94502.55404
    31.50800 92084.02422 93911.49249
    31.51200 90968.27885 93284.03093
    31.51600 90027.68095 91303.44785
    31.52000 89288.78575 91950.17999
    31.52400 88733.31231 91302.08554
    31.52800 88329.23944 87648.35599
    31.53200 88046.20915 89416.12181
    31.53600 87859.96790 90605.32599
    31.54000 87752.59947 91626.31226
    31.54400 87711.43529 90872.97647
    31.54800 87727.75100 87173.85423
    31.55200 87795.63154 89401.61006
    31.55600 87911.13491 87959.29531
    31.56000 88070.94719 88939.76845
    31.56400 88272.80130 90507.06422
    31.56800 88514.35409 89676.95660
    31.57200 88792.77568 88364.76277
    31.57600 89104.57187 91586.37916
    31.58000 89444.44564 93767.30381
    31.58400 89806.79512 92140.11352
    31.58800 90182.95470 91690.89432
    31.59200 90562.86590 92545.28810
    31.59600 90934.43615 90621.38732
    31.60000 91285.08263 90329.32781
    31.60400 91600.53532 91893.32636
    31.60800 91866.72024 91862.37126
    31.61200 92070.33918 89873.52759
    31.61600 92199.82555 90800.44562
    31.62000 92246.38201 90212.93978
    31.62400 92204.93139 91309.24579
    31.62800 92074.75786 91583.62590
    31.63200 91859.48626 91886.57277
    31.63600 91567.08427 92815.40003
    31.64000 91208.81555 89883.60097
    31.64400 90798.20207 93325.59460
    31.64800 90350.90249 91014.27834
    31.65200 89881.97957 90394.62463
    31.65600 89406.02451 91387.31468
    31.66000 88935.90526 95775.81517
    31.66400 88482.06601 89329.92590
    31.66800 88052.18984 89856.51309
    31.67200 87651.24933 87923.85028
    31.67600 87281.86403 88183.59532
    31.68000 86944.83608 86046.65035
    31.68400 86639.61184 87267.19737
    31.68800 86364.66986 91457.08744
    31.69200 86118.18005 91904.52708
    31.69600 85897.99329 91216.46601
    31.70000 85701.89202 87752.40127
    31.70400 85527.70139 85708.79557
    31.70800 85373.35632 85365.02793
    31.71200 85236.93950 84580.31062
    31.71600 85116.70299 84374.22663
    31.72000 85011.09933 90079.39307
    31.72400 84918.77777 86461.93454
    31.72800 84838.31286 85166.44547
    31.73200 84768.66604 88713.05599
    31.73600 84708.79593 86755.08903
    31.74000 84656.75676 85524.27780
    31.74400 84614.69307 86823.00567
    31.74800 84580.51965 84431.06770
    31.75200 84553.73846 85852.91736
    31.75600 84533.97950 85641.80694
    31.76000 84521.15925 86741.00356
    31.76400 84514.99310 84867.83261
    31.76800 84514.92342 84945.54039
    31.77200 84521.85812 85244.07445
    31.77600 84535.35876 86077.04497
    31.78000 84555.54815 84630.21910
    31.78400 84582.62683 87775.80794
    31.78800 84616.88043 86396.22674
    31.79200 84658.68309 85700.05346
    31.79600 84708.37302 85792.83669
    31.80000 84766.44368 84310.06634
    31.80400 84833.66054 84852.24825
    31.80800 84910.62414 86506.95994
    31.81200 84998.10789 86927.15983
    31.81600 85096.93513 87131.61322
    31.82000 85208.07926 86130.53438
    31.82400 85332.25376 86762.25508
    31.82800 85471.00711 90605.08225
    31.83200 85625.06068 86915.39874
    31.83600 85795.34121 85289.11923
    31.84000 85982.62118 86545.65062
    31.84400 86187.41052 89022.83084
    31.84800 86409.81651 85498.76742
    31.85200 86649.36779 86161.67431
    31.85600 86904.79837 89109.01550
    31.86000 87173.79635 86229.42276
    31.86400 87452.74021 87542.73851
    31.86800 87736.48271 86419.31251
    31.87200 88018.28979 86156.75726
    31.87600 88290.06610 88361.20362
    31.88000 88542.95312 90711.35714
    31.88400 88768.25360 91269.38023
    31.88800 88958.45746 88250.52079
    31.89200 89108.15518 94457.93817
    31.89600 89214.62687 88202.22062
    31.90000 89278.05480 86871.14232
    31.90400 89301.46635 86582.94989
    31.90800 89290.42274 90559.31023
    31.91200 89252.41755 86834.27871
    31.91600 89195.89955 90075.72921
    31.92000 89129.96165 88513.94723
    31.92400 89061.82621 89496.37473
    31.92800 88996.83289 87877.85501
    31.93200 88937.97551 84747.90299
    31.93600 88885.52840 87401.12473
    31.94000 88837.68778 90477.59275
    31.94400 88791.13827 93767.67218
    31.94800 88741.79578 88995.52811
    31.95200 88685.29709 85782.22441
    31.95600 88617.90124 87494.04616
    31.96000 88536.76198 86002.57783
    31.96400 88440.29225 82581.87367
    31.96800 88328.26942 89346.07249
    31.97200 88201.82663 90692.45629
    31.97600 88063.29424 87414.17964
    31.98000 87915.94936 86612.73134
    31.98400 87763.53029 89726.12793
    31.98800 87610.08490 87857.36444
    31.99200 87459.52740 87021.77079
    31.99600 87315.39965 85371.24094
    32.00000 87180.74871 87731.81556
    32.00400 87057.95737 87144.05919
    32.00800 86948.90535 87820.00267
    32.01200 86854.98214 86280.34488
    32.01600 86777.18483 84768.41002
    32.02000 86716.03531 83788.92164
    32.02400 86672.38051 85396.38710
    32.02800 86646.40075 86686.87793
    32.03200 86638.41495 82707.23594
    32.03600 86648.74817 89671.34658
    32.04000 86677.77567 84986.34435
    32.04400 86725.95767 86744.61690
    32.04800 86793.86705 87104.00053
    32.05200 86882.21062 85660.97147
    32.05600 86991.84643 87842.81005
    32.06000 87123.79621 88363.31492
    32.06400 87279.25398 87402.87177
    32.06800 87459.59098 90886.47946
    32.07200 87666.35984 90418.73758
    32.07600 87901.28455 91973.09144
    32.08000 88166.15877 88985.95037
    32.08400 88463.06728 86526.58720
    32.08800 88793.86271 88324.17803
    32.09200 89160.94005 88409.03031
    32.09600 89566.24236 91519.22127
    32.10000 90011.71255 90244.16583
    32.10400 90499.22114 90370.85897
    32.10800 91030.26470 90860.04789
    32.11200 91606.03039 91628.55479
    32.11600 92227.23871 91359.14663
    32.12000 92893.96137 92582.05162
    32.12400 93605.31796 95688.27139
    32.12800 94358.60344 95291.22667
    32.13200 95148.36698 94007.03013
    32.13600 95964.87024 96069.62090
    32.14000 96791.62344 95675.13813
    32.14400 97603.28523 99360.98054
    32.14800 98364.82523 101552.73580
    32.15200 99033.54845 99698.29699
    32.15600 99564.40691 104161.67680
    32.16000 99918.04335 102554.82645
    32.16400 100066.86651 104524.28952
    32.16800 99997.39976 102761.81445
    32.17200 99713.40511 101151.82720
    32.17600 99230.81933 102690.84298
    32.18000 98579.51979 104529.05892
    32.18400 97801.17115 101944.66489
    32.18800 96945.86613 98510.55558
    32.19200 96065.94393 97992.00160
    32.19600 95208.19160 104059.94615
    32.20000 94407.46922 99049.37510
    32.20400 93683.97173 96844.50387
    32.20800 93044.25773 93973.50147
    32.21200 92484.68463 94238.06238
    32.21600 91995.13907 93787.05465
    32.22000 91562.42807 91491.66249
    32.22400 91172.86740 90027.39856
    32.22800 90814.08026 91733.35644
    32.23200 90476.14116 92232.35510
    32.23600 90152.15366 91299.38380
    32.24000 89838.22990 90684.31085
    32.24400 89532.87437 91062.77739
    32.24800 89235.71270 92244.28899
    32.25200 88945.98650 89852.18337
    32.25600 88661.89193 90989.82511
    32.26000 88381.48056 84920.32738
    32.26400 88104.05589 89069.19936
    32.26800 87830.28823 90182.10877
    32.27200 87561.46477 89286.62117
    32.27600 87298.34781 88954.25586
    32.28000 87041.57195 87677.97174
    32.28400 86792.13692 87109.65298
    32.28800 86552.52708 88263.51800
    32.29200 86326.91028 93742.93148
    32.29600 86119.69552 88469.44989
    32.30000 85933.34643 91955.55224
    32.30400 85768.94885 90522.39243
    32.30800 85624.32390 95954.06343
    32.31200 85497.27235 91151.63530
    32.31600 85385.60314 93634.74627
    32.32000 85286.73139 90207.95167
    32.32400 85198.94787 89663.07184
    32.32800 85120.76803 87167.58889
    32.33200 85050.96905 86988.13022
    32.33600 84988.36176 86206.45148
    32.34000 84932.14574 86876.69280
    32.34400 84881.62268 85751.38713
    32.34800 84836.15222 89274.25513
    32.35200 84795.19300 88505.86187
    32.35600 84758.31274 89927.86951
    32.36000 84725.08250 89995.67854
    32.36400 84695.75942 87523.90535
    32.36800 84669.16587 87545.31872
    32.37200 84645.51259 86870.87718
    32.37600 84624.45310 87066.27628
    32.38000 84605.81782 84014.50244
    32.38400 84589.48045 86440.84411
    32.38800 84575.24612 85222.07982
    32.39200 84563.15339 86158.85257
    32.39600 84553.01070 85975.47839
    32.40000 84544.72788 88825.48103
    32.40400 84538.22773 86475.46465
    32.40800 84533.44479 88815.92044
    32.41200 84530.32445 89028.03895
    32.41600 84528.82204 88746.26564
    32.42000 84528.89924 89315.05759
    32.42400 84530.54503 87385.07193
    32.42800 84533.69572 87987.75893
    32.43200 84538.54785 87654.92039
    32.43600 84544.79446 86934.94255
    32.44000 84552.55900 83929.29877
    32.44400 84561.87176 90252.64008
    32.44800 84572.75565 88936.76869
    32.45200 84585.24209 87555.64421
    32.45600 84599.37144 86162.90711
    32.46000 84615.19341 86126.27867
    32.46400 84632.76767 89434.74834
    32.46800 84652.16456 87630.45387
    32.47200 84673.46723 87533.02627
    32.47600 84696.77958 83227.92284
    32.48000 84722.18972 86724.20573
    32.48400 84749.82733 87914.35555
    32.48800 84779.83492 85726.95512
    32.49200 84812.37057 85983.51066
    32.49600 84847.61275 87808.87524
    32.50000 84885.76254 86086.33760
    32.50400 84927.04619 88191.13828
    32.50800 84971.71801 84025.44536
    32.51200 85020.06369 82973.51227
    32.51600 85072.41618 86741.97556
    32.52000 85129.20579 85901.18044
    32.52400 85190.65327 87622.12870
    32.52800 85257.30542 85180.75659
    32.53200 85329.66485 86315.21381
    32.53600 85408.29261 84622.10421
    32.54000 85493.81408 88113.57057
    32.54400 85586.92527 85614.28016
    32.54800 85688.39938 89862.66419
    32.55200 85799.09353 88204.89235
    32.55600 85919.95539 91585.27125
    32.56000 86052.02955 90771.08451
    32.56400 86196.46914 92529.03095
    32.56800 86354.58054 89664.05224
    32.57200 86527.68920 90710.62605
    32.57600 86717.15252 88762.69622
    32.58000 86924.62378 89375.42025
    32.58400 87151.75090 89765.73481
    32.58800 87400.23671 88306.88999
    32.59200 87671.79676 88483.78632
    32.59600 87968.09747 88971.01547
    32.60000 88290.67744 91846.74692
    32.60400 88640.86530 90428.42474
    32.60800 89019.48594 94854.05357
    32.61200 89426.85469 91110.60329
    32.61600 89862.59156 91378.32410
    32.62000 90325.32935 90679.84081
    32.62400 90812.57581 90059.10650
    32.62800 91320.48903 87244.93835
    32.63200 91843.87597 91330.85745
    32.63600 92375.73262 91822.93812
    32.64000 92907.66730 93755.62564
    32.64400 93429.01944 92661.21294
    32.64800 93928.91725 94836.43973
    32.65200 94392.94094 96393.68386
    32.65600 94805.48741 93670.99884
    32.66000 95149.35389 96157.46186
    32.66400 95407.17623 95811.37786
    32.66800 95562.16661 96944.76818
    32.67200 95601.04928 97727.49199
    32.67600 95516.17262 97392.17917
    32.68000 95306.79873 95063.04708
    32.68400 94979.27850 96975.45124
    32.68800 94546.35846 94357.69452
    32.69200 94026.13686 95697.74738
    32.69600 93440.71792 94561.73388
    32.70000 92813.98578 94881.83922
    32.70400 92169.32345 93772.19852
    32.70800 91528.77406 92743.80164
    32.71200 90911.27269 89356.99709
    32.71600 90330.46788 91866.10767
    32.72000 89794.28476 93934.31917
    32.72400 89305.85324 89940.02586
    32.72800 88864.81794 86734.88143
    32.73200 88468.74933 88628.69374
    32.73600 88114.35869 89475.22553
    32.74000 87799.17929 85830.55949
    32.74400 87520.32320 88079.89418
    32.74800 87273.86685 85710.72601
    32.75200 87055.88497 88426.89264
    32.75600 86863.07021 85640.57271
    32.76000 86692.07917 88141.97469
    32.76400 86540.47950 84095.69995
    32.76800 86405.99583 87802.25503
    32.77200 86286.72254 86305.78926
    32.77600 86180.98341 86864.47090
    32.78000 86087.34331 89099.63118
    32.78400 86004.55290 87044.62339
    32.78800 85931.55908 85450.21432
    32.79200 85867.46684 84281.03108
    32.79600 85811.51524 87700.94538
    32.80000 85763.04792 88306.90891
    32.80400 85721.49007 86528.70258
    32.80800 85686.01037 86995.54111
    32.81200 85657.18796 88489.73405
    32.81600 85634.21870 87214.96708
    32.82000 85616.86564 87024.10058
    32.82400 85604.94308 86420.66326
    32.82800 85598.30785 88928.89129
    32.83200 85596.85515 86681.61242
    32.83600 85600.53993 91216.72640
    32.84000 85609.25170 87216.66780
    32.84400 85622.83901 86003.78315
    32.84800 85641.26613 88213.32322
    32.85200 85664.38715 87243.78150
    32.85600 85692.00629 89184.42446
    32.86000 85723.75598 86339.92320
    32.86400 85759.37185 86637.59444
    32.86800 85798.20650 87045.70707
    32.87200 85839.55383 87225.09061
    32.87600 85882.57270 82606.43043
    32.88000 85926.10532 85268.23850
    32.88400 85969.08472 84048.04169
    32.88800 86009.29709 86345.58607
    32.89200 86047.98287 89111.42426
    32.89600 86082.97807 87809.66128
    32.90000 86113.54167 87142.54664
    32.90400 86139.18266 86499.98237
    32.90800 86159.66112 86497.76897
    32.91200 86174.95550 87026.07604
    32.91600 86185.21593 86704.76146
    32.92000 86190.70475 87559.70461
    32.92400 86191.84602 87139.46920
    32.92800 86189.22587 85775.06159
    32.93200 86183.58876 88188.16059
    32.93600 86176.04012 87337.27511
    32.94000 86167.38184 87277.20891
    32.94400 86160.35228 87044.26638
    32.94800 86156.58479 87038.45897
    32.95200 86157.96320 89338.85076
    32.95600 86163.91145 85587.55705
    32.96000 86172.07963 84435.06356
    32.96400 86183.01847 82113.08538
    32.96800 86198.88986 86493.59612
    32.97200 86221.36832 87068.90935
    32.97600 86251.18449 84991.50986
    32.98000 86290.27944 84204.47239
    32.98400 86338.50996 87496.66652
    32.98800 86396.85490 85152.38119
    32.99200 86468.93725 85041.83463
    32.99600 86560.79422 83528.34284
    33.00000 86675.77779 83258.71309
    33.00400 86814.70295 85404.57042
    33.00800 86977.19134 86070.17009
    33.01200 87160.54257 86497.56107
    33.01600 87358.04437 86438.14172
    33.02000 87558.77591 86997.47580
    33.02400 87749.22932 84516.27214
    33.02800 87915.95761 87500.36327
    33.03200 88048.43772 91777.94538
    33.03600 88140.76657 90044.99787
    33.04000 88190.31769 88102.26009
    33.04400 88198.12342 90984.02903
    33.04800 88168.54537 94755.29968
    33.05200 88109.97846 90565.15181
    33.05600 88034.86573 87964.41163
    33.06000 87958.14924 89816.01562
    33.06400 87894.21492 88675.55470
    33.06800 87854.05008 87347.33627
    33.07200 87844.20949 87812.39543
    33.07600 87867.50957 86721.62147
    33.08000 87924.42352 88692.64292
    33.08400 88014.12832 88609.04079
    33.08800 88135.93420 92078.79481
    33.09200 88288.76967 88096.15293
    33.09600 88471.77538 88239.27068
    33.10000 88684.39733 87821.85349
    33.10400 88926.47912 90375.79214
    33.10800 89197.85572 89808.98148
    33.11200 89498.31803 89929.40096
    33.11600 89827.44857 90162.74001
    33.12000 90184.44363 90761.44375
    33.12400 90567.93110 89705.34252
    33.12800 90975.79189 89023.85213
    33.13200 91404.98992 89654.64589
    33.13600 91851.40911 89633.25211
    33.14000 92309.69393 91738.57379
    33.14400 92773.11230 93989.84094
    33.14800 93233.26371 94110.88888
    33.15200 93680.10763 91687.56166
    33.15600 94102.15694 94924.77707
    33.16000 94486.73776 91559.55565
    33.16400 94820.82966 94262.59623
    33.16800 95092.27498 94291.73513
    33.17200 95291.42099 94449.70069
    33.17600 95413.33688 93010.85399
    33.18000 95460.40479 97059.04270
    33.18400 95446.61711 96357.81325
    33.18800 95403.07492 95109.48350
    33.19200 95388.84132 99322.62270
    33.19600 95505.06760 96699.13555
    33.20000 95894.79396 100920.47700
    33.20400 96648.87120 98497.93928
    33.20800 97560.69343 97129.33177
    33.21200 98194.25328 98846.41518
    33.21600 98394.85567 102698.99705
    33.22000 98260.06576 101805.05757
    33.22400 97895.04363 98610.31185
    33.22800 97336.49889 94185.23344
    33.23200 96545.81315 96115.38515
    33.23600 95421.81809 98017.80654
    33.24000 93889.02678 96466.21852
    33.24400 92142.64496 93034.14067
    33.24800 90635.26185 89737.95107
    33.25200 89561.88643 89441.57284
    33.25600 88832.34714 90062.44271
    33.26000 88319.56509 87984.62779
    33.26400 87938.36756 88173.81705
    33.26800 87640.29174 87403.36309
    33.27200 87398.26477 90116.22387
    33.27600 87196.94864 83880.83275
    33.28000 87026.27152 86867.29427
    33.28400 86879.60338 93206.35632
    33.28800 86752.27142 89991.45078
    33.29200 86640.82602 90482.46685
    33.29600 86542.65349 91792.16577
    33.30000 86455.60514 90423.64273
    33.30400 86378.48240 90049.24571
    33.30800 86309.80540 88534.00426
    33.31200 86248.54024 90030.09005
    33.31600 86193.83506 90066.66551
    33.32000 86144.98220 90664.48989
    33.32400 86101.38754 88985.92681
    33.32800 86062.51575 87398.77337
    33.33200 86027.72866 85576.90660
    33.33600 85997.23144 93454.75180
    33.34000 85970.42309 87008.28534
    33.34400 85947.05189 88393.84425
    33.34800 85926.90890 86750.27803
    33.35200 85909.82803 87198.97523
    33.35600 85895.65029 89194.39881
    33.36000 85884.27567 88122.25860
    33.36400 85875.62248 89741.82634
    33.36800 85869.63591 87785.01917
    33.37200 85866.28721 86944.37843
    33.37600 85865.52082 86610.13531
    33.38000 85867.48145 86753.29957
    33.38400 85871.94258 88782.09960
    33.38800 85879.37578 86350.31179
    33.39200 85889.70193 87010.60000
    33.39600 85903.09200 89558.96310
    33.40000 85919.61218 88249.73120
    33.40400 85939.50960 87381.36911
    33.40800 85962.96953 85773.09515
    33.41200 85990.36820 87485.86663
    33.41600 86021.95412 86634.12623
    33.42000 86058.07280 88506.68974
    33.42400 86099.10980 86594.25850
    33.42800 86145.49055 86505.54381
    33.43200 86197.67852 88230.25944
    33.43600 86256.16889 88338.47190
    33.44000 86321.46317 87804.44801
    33.44400 86393.97320 86993.17292
    33.44800 86474.56979 86648.38083
    33.45200 86563.58614 86514.73968
    33.45600 86661.49502 85548.11473
    33.46000 86768.61134 85024.04501
    33.46400 86885.24726 89107.47307
    33.46800 87011.37650 88257.28170
    33.47200 87147.41260 87757.02052
    33.47600 87293.19019 84709.04101
    33.48000 87448.61245 88215.44234
    33.48400 87614.12062 86639.33278
    33.48800 87790.97896 88337.25649
    33.49200 87981.41935 87512.72224
    33.49600 88189.00353 88505.74520
    33.50000 88418.71904 84996.96727
    33.50400 88676.57330 86890.04548
    33.50800 88968.24055 89914.59320
    33.51200 89296.21721 88977.18349
    33.51600 89655.36097 89024.46672
    33.52000 90028.48514 91673.98563
    33.52400 90386.04478 92236.50699
    33.52800 90692.67065 89765.95354
    33.53200 90917.26146 95603.55644
    33.53600 91040.23160 95026.41012
    33.54000 91052.51266 95320.91147
    33.54400 90952.69504 92318.10650
    33.54800 90745.52951 91119.54527
    33.55200 90443.53172 92970.23482
    33.55600 90070.04576 93297.24012
    33.56000 89659.34742 92448.06094
    33.56400 89250.06071 92768.56523
    33.56800 88874.63747 93583.12524
    33.57200 88552.56850 90739.01481
    33.57600 88290.62941 92698.26225
    33.58000 88087.23097 88718.97638
    33.58400 87936.93849 90820.08951
    33.58800 87833.07378 89544.03889
    33.59200 87769.42911 89169.04403
    33.59600 87740.69192 88063.07428
    33.60000 87742.50368 89946.44370
    33.60400 87771.83101 88821.93903
    33.60800 87826.19037 89221.81033
    33.61200 87903.92433 87950.05751
    33.61600 88003.94947 88507.13896
    33.62000 88125.47918 89177.60598
    33.62400 88268.11645 88779.67386
    33.62800 88431.59546 87754.91587
    33.63200 88615.74445 88640.26225
    33.63600 88820.43035 88882.83563
    33.64000 89045.51111 88854.69968
    33.64400 89290.76326 90786.06291
    33.64800 89555.72243 90009.87567
    33.65200 89839.37563 89894.42442
    33.65600 90139.63750 88398.73216
    33.66000 90452.69404 89602.48775
    33.66400 90771.82496 89998.13621
    33.66800 91086.51913 92108.30405
    33.67200 91384.05478 91157.32670
    33.67600 91649.77379 90615.12022
    33.68000 91870.12494 91936.60396
    33.68400 92036.08247 92102.05751
    33.68800 92146.76236 92467.29819
    33.69200 92213.01360 91491.03574
    33.69600 92260.24402 91302.03339
    33.70000 92325.17054 87956.13445
    33.70400 92429.29287 91672.72479
    33.70800 92527.00501 89674.14068
    33.71200 92525.99808 92770.96347
    33.71600 92393.00496 90464.17705
    33.72000 92156.52389 92850.17257
    33.72400 91851.52212 90044.14244
    33.72800 91494.71946 95381.98587
    33.73200 91080.97522 91266.95687
    33.73600 90589.32927 88375.29395
    33.74000 90010.27451 86961.48775
    33.74400 89399.07919 87909.88245
    33.74800 88864.84331 88701.53381
    33.75200 88461.87054 87506.07312
    33.75600 88174.68876 83382.16770
    33.76000 87970.56484 87338.15948
    33.76400 87823.60707 87922.19755
    33.76800 87717.08047 84719.73269
    33.77200 87640.67338 87991.46779
    33.77600 87588.00164 87381.32807
    33.78000 87554.99859 91819.02210
    33.78400 87538.94149 87629.41347
    33.78800 87537.98054 87748.02722
    33.79200 87550.86705 86775.95714
    33.79600 87576.79187 87862.42332
    33.80000 87615.28311 88084.22535
    33.80400 87666.13818 87513.94356
    33.80800 87729.37712 89063.03861
    33.81200 87805.20985 87038.97527
    33.81600 87894.01198 88921.56576
    33.82000 87996.30651 87382.18600
    33.82400 88112.74822 88642.86448
    33.82800 88244.10920 88170.26422
    33.83200 88391.26537 88932.40122
    33.83600 88555.16727 87755.40620
    33.84000 88736.84500 88633.96246
    33.84400 88937.30933 86004.29666
    33.84800 89157.51979 88765.23216
    33.85200 89398.42919 88756.10570
    33.85600 89660.74867 89789.75046
    33.86000 89944.94912 87504.62220
    33.86400 90251.08887 90768.06482
    33.86800 90578.66042 89586.25194
    33.87200 90926.54167 91134.21795
    33.87600 91292.55191 87741.82961
    33.88000 91674.21891 90768.64883
    33.88400 92067.38728 90452.25852
    33.88800 92466.41531 90539.41501
    33.89200 92865.52911 92229.65051
    33.89600 93257.54455 90472.88472
    33.90000 93634.28606 92997.08604
    33.90400 93986.62636 92976.56310
    33.90800 94304.51772 93755.27921
    33.91200 94577.18360 91793.42306
    33.91600 94793.21501 94542.85731
    33.92000 94941.71788 92557.07721
    33.92400 95012.75819 93306.95545
    33.92800 94998.96874 91282.69329
    33.93200 94896.86873 93039.32632
    33.93600 94707.56054 90609.52223
    33.94000 94436.81306 92463.04899
    33.94400 94094.76600 93222.51928
    33.94800 93695.14365 91362.12061
    33.95200 93253.53838 90255.76258
    33.95600 92784.86969 89916.60197
    33.96000 92302.89423 91248.18270
    33.96400 91821.91105 90406.35197
    33.96800 91355.24854 92057.76139
    33.97200 90912.94841 88691.59082
    33.97600 90500.86594 88958.60743
    33.98000 90121.76293 87546.62340
    33.98400 89775.32816 86233.87415
    33.98800 89460.32897 85944.62585
    33.99200 89176.60292 87163.34505
    33.99600 88924.94013 88293.80596
    34.00000 88704.14636 90625.30511
    34.00400 88511.03187 88274.13285
    34.00800 88342.26612 85101.30295
    34.01200 88194.95187 87266.62431
    34.01600 88066.65613 85232.08440
    34.02000 87955.33888 87659.18391
    34.02400 87859.24450 86763.39026
    34.02800 87776.97614 91153.58756
    34.03200 87707.03257 89574.52488
    34.03600 87648.87167 88502.87494
    34.04000 87601.42231 86551.53983
    34.04400 87563.96481 86994.19950
    34.04800 87535.83456 89197.97604
    34.05200 87516.65253 88910.72159
    34.05600 87506.07619 87233.64986
    34.06000 87503.85613 87850.07694
    34.06400 87509.83037 87701.61751
    34.06800 87523.95015 87304.91834
    34.07200 87546.11904 86708.54332
    34.07600 87576.27855 87480.15764
    34.08000 87614.52969 88421.11981
    34.08400 87660.87061 86704.01570
    34.08800 87715.47701 87088.39512
    34.09200 87777.92092 86696.09396
    34.09600 87848.94582 85976.38978
    34.10000 87928.10439 86837.38382
    34.10400 88015.16459 89658.94001
    34.10800 88109.70237 89226.97978
    34.11200 88211.17503 89288.05032
    34.11600 88318.68251 90771.92308
    34.12000 88431.08505 89004.16508
    34.12400 88546.89935 86733.37769
    34.12800 88664.30576 87840.77929
    34.13200 88781.06963 86901.27735
    34.13600 88894.95584 87113.62968
    34.14000 89002.57861 88166.86862
    34.14400 89102.71968 86320.91917
    34.14800 89192.15810 89657.82699
    34.15200 89268.76494 88642.45323
    34.15600 89331.05630 90674.43515
    34.16000 89378.41970 89055.69333
    34.16400 89412.09075 89531.50626
    34.16800 89434.94293 88117.18754
    34.17200 89452.70063 89627.55738
    34.17600 89475.00663 88315.82734
    34.18000 89517.11160 88295.72851
    34.18400 89601.98118 88036.62850
    34.18800 89761.39350 89581.73968
    34.19200 90030.86221 90624.83120
    34.19600 90426.51516 92040.82033
    34.20000 90901.87149 91642.71212
    34.20400 91346.42323 90833.67581
    34.20800 91660.89252 91605.21801
    34.21200 91814.84816 92722.66815
    34.21600 91821.34809 92524.77189
    34.22000 91694.71487 89623.87634
    34.22400 91433.03770 92203.05137
    34.22800 91020.95303 89823.71920
    34.23200 90453.65168 87998.21462
    34.23600 89780.48551 85616.89910
    34.24000 89113.39237 89956.81501
    34.24400 88554.64754 88014.57732
    34.24800 88134.48549 86382.31586
    34.25200 87830.66436 87418.90235
    34.25600 87610.00595 88497.14879
    34.26000 87445.82042 87436.45607
    34.26400 87320.09789 85673.15544
    34.26800 87221.17768 85364.99774
    34.27200 87141.72959 85972.84509
    34.27600 87077.04021 86822.09156
    34.28000 87023.96584 87185.26453
    34.28400 86980.32302 86741.54352
    34.28800 86944.54258 86930.42986
    34.29200 86915.46785 88099.64946
    34.29600 86892.21164 85828.92068
    34.30000 86873.95899 87981.85960
    34.30400 86860.57605 85842.73175
    34.30800 86851.48514 86671.83471
    34.31200 86846.39671 83406.02528
    34.31600 86845.09726 85780.60911
    34.32000 86847.43645 88420.47591
    34.32400 86853.31810 86515.27238
    34.32800 86862.69385 87226.37728
    34.33200 86875.55877 84739.36731
    34.33600 86891.94862 87415.84722
    34.34000 86911.93841 87525.09957
    34.34400 86935.64184 86732.01497
    34.34800 86963.21179 84646.75033
    34.35200 86994.84133 87093.71281
    34.35600 87030.76552 87173.83749
    34.36000 87071.26356 88328.36652
    34.36400 87116.66149 88808.50359
    34.36800 87167.33512 87776.44309
    34.37200 87223.71313 85590.72611
    34.37600 87286.28023 84937.46713
    34.38000 87355.58007 88373.66542
    34.38400 87432.21792 82248.25966
    34.38800 87516.85979 86734.85520
    34.39200 87610.24084 85785.56162
    34.39600 87713.12107 90385.29492
    34.40000 87826.39692 87497.10276
    34.40400 87950.76517 87537.94996
    34.40800 88087.63525 87156.83631
    34.41200 88237.74467 86874.14801
    34.41600 88402.02971 85811.00922
    34.42000 88581.45525 86801.78627
    34.42400 88776.86403 88210.76258
    34.42800 88988.95809 85190.95662
    34.43200 89218.15045 87877.53205
    34.43600 89464.49504 86703.19004
    34.44000 89727.51272 87123.58291
    34.44400 90006.06435 88092.93058
    34.44800 90298.11351 88266.38728
    34.45200 90600.60853 86778.49793
    34.45600 90909.22240 88936.09316
    34.46000 91218.69550 87002.35241
    34.46400 91522.45465 89024.50386
    34.46800 91813.24824 85408.98083
    34.47200 92083.56932 85821.15161
    34.47600 92326.31445 89447.93663
    34.48000 92535.50455 90139.01597
    34.48400 92706.92430 88586.86612
    34.48800 92838.50678 89067.20974
    34.49200 92930.27688 89716.06756
    34.49600 92983.70168 86470.98536
    34.50000 93000.41110 84794.62550
    34.50400 92980.80863 87889.41469
    34.50800 92923.22295 91031.17809
    34.51200 92824.50415 87631.36252
    34.51600 92681.79881 88027.22286
    34.52000 92494.24357 87239.95715
    34.52400 92263.58001 89799.87783
    34.52800 91993.71830 88547.49108
    34.53200 91690.22235 88894.25739
    34.53600 91360.39291 87814.52808
    34.54000 91013.79575 92711.96563
    34.54400 90662.37737 85917.56002
    34.54800 90319.30194 90950.32207
    34.55200 89996.66396 87536.27203
    34.55600 89703.14478 85796.32100
    34.56000 89443.18747 85907.46473
    34.56400 89217.87662 85157.51621
    34.56800 89025.87357 88166.37716
    34.57200 88864.69294 87664.22305
    34.57600 88731.47443 88709.48576
    34.58000 88623.40200 86037.23796
    34.58400 88537.89902 88091.25552
    34.58800 88472.69917 88874.19244
    34.59200 88425.89235 89065.76441
    34.59600 88395.57780 86699.59675
    34.60000 88380.23144 88458.86768
    34.60400 88378.44721 86687.66888
    34.60800 88388.83356 85423.14826
    34.61200 88409.97860 85481.23237
    34.61600 88440.38390 86719.78975
    34.62000 88478.40480 85762.96641
    34.62400 88522.21335 86780.27176
    34.62800 88569.68201 87221.49473
    34.63200 88618.39404 85613.68592
    34.63600 88665.75798 85636.19404
    34.64000 88709.09245 85426.87863
    34.64400 88745.07792 90626.76896
    34.64800 88770.91274 87158.36139
    34.65200 88784.09713 87809.09791
    34.65600 88782.60346 89506.82939
    34.66000 88765.17410 85102.09183
    34.66400 88731.56388 86988.43758
    34.66800 88682.67801 85422.49215
    34.67200 88620.65755 86410.89673
    34.67600 88548.81532 85238.33937
    34.68000 88471.17730 85987.96122
    34.68400 88391.09764 83546.13096
    34.68800 88309.18712 83072.87037
    34.69200 88223.45114 84809.08943
    34.69600 88132.78226 86512.66087
    34.70000 88038.24166 83899.39233
    34.70400 87942.59011 85504.79558
    34.70800 87847.25128 84406.04205
    34.71200 87752.70141 85822.83201
    34.71600 87658.55981 84561.16891
    34.72000 87564.85936 85813.78201
    34.72400 87474.04695 85335.85574
    34.72800 87390.87495 86687.40751
    34.73200 87318.92970 85067.30077
    34.73600 87258.63997 85273.23689
    34.74000 87208.52977 84198.13805
    34.74400 87166.86644 85107.51321
    34.74800 87132.24844 82328.10514
    34.75200 87103.65019 84248.52648
    34.75600 87080.33967 84235.67679
    34.76000 87061.78898 83472.82672
    34.76400 87047.60885 83225.16582
    34.76800 87037.50721 81737.82912
    34.77200 87031.26482 85528.72108
    34.77600 87028.72113 86312.80196
    34.78000 87029.76563 84913.38517
    34.78400 87034.33254 86041.77189
    34.78800 87042.39753 87763.97365
    34.79200 87053.97525 85323.10222
    34.79600 87069.12060 85872.83790
    34.80000 87087.92268 87842.29358
    34.80400 87110.52046 86731.97418
    34.80800 87137.08521 85974.83466
    34.81200 87167.83585 82923.63854
    34.81600 87203.02439 86567.22305
    34.82000 87242.99920 84515.98998
    34.82400 87287.98713 85271.34336
    34.82800 87338.69960 85852.71813
    34.83200 87395.43337 85973.50732
    34.83600 87458.98628 85309.33677
    34.84000 87529.83344 87969.57196
    34.84400 87608.80681 84430.48869
    34.84800 87696.78259 89891.08010
    34.85200 87794.65520 87045.18605
    34.85600 87903.32593 85539.92521
    34.86000 88024.44593 86680.15571
    34.86400 88159.13809 86192.60836
    34.86800 88308.70200 83905.09609
    34.87200 88474.39222 85429.00772
    34.87600 88657.64308 85768.66560
    34.88000 88859.61158 87875.73197
    34.88400 89081.13478 87268.57413
    34.88800 89322.81189 85249.92521
    34.89200 89585.17814 88143.47564
    34.89600 89869.55250 88705.39925
    34.90000 90179.30134 89602.41035
    34.90400 90522.08216 90229.85281
    34.90800 90912.25538 87253.65025
    34.91200 91373.33900 89200.68056
    34.91600 91938.35045 93069.01122
    34.92000 92642.56792 91159.90628
    34.92400 93498.94169 90477.05270
    34.92800 94456.12759 95171.24434
    34.93200 95385.70000 94133.76767
    34.93600 96144.94563 93445.75261
    34.94000 96659.48681 91824.23105
    34.94400 96922.19926 95411.04445
    34.94800 96945.63815 95070.03221
    34.95200 96732.68050 98082.95478
    34.95600 96274.96109 96364.67740
    34.96000 95576.61108 98526.29899
    34.96400 94697.49449 97299.73277
    34.96800 93771.04426 98289.89646
    34.97200 92943.73200 100150.27213
    34.97600 92289.60582 92259.40701
    34.98000 91805.50613 91862.00935
    34.98400 91455.79594 91680.17408
    34.98800 91202.03959 92223.50812
    34.99200 91012.08183 92089.89052
    34.99600 90861.06216 92873.68299
    35.00000 90730.81250 91351.28381
    35.00400 90609.01394 92455.52805
    35.00800 90488.09316 88749.98403
    35.01200 90364.01464 90614.29287
    35.01600 90235.42844 88371.40313
    35.02000 90103.15665 89262.09254
    35.02400 89970.51265 90688.82133
    35.02800 89842.59608 91338.57093
    35.03200 89725.69437 87857.84466
    35.03600 89625.77762 90195.35587
    35.04000 89547.26768 89434.53912
    35.04400 89492.58543 91269.09449
    35.04800 89462.29187 90520.57029
    35.05200 89456.03521 91234.68991
    35.05600 89472.91526 92262.93540
    35.06000 89511.87414 92683.42268
    35.06400 89571.90032 87222.30971
    35.06800 89652.10114 88278.01182
    35.07200 89751.71293 88395.37131
    35.07600 89870.05911 87765.69045
    35.08000 90006.51690 89292.40841
    35.08400 90160.47877 90645.56641
    35.08800 90331.28684 91293.29194
    35.09200 90518.19391 88088.43891
    35.09600 90720.32524 90176.78674
    35.10000 90936.64587 90884.15624
    35.10400 91165.96674 90611.64666
    35.10800 91407.08997 90376.20630
    35.11200 91657.77365 92822.31735
    35.11600 91916.12230 88385.48254
    35.12000 92179.87843 87073.91057
    35.12400 92446.20674 90435.49322
    35.12800 92712.68376 95290.16657
    35.13200 92976.81610 92609.06709
    35.13600 93237.68832 90604.47219
    35.14000 93497.29242 91526.31456
    35.14400 93762.45689 92907.96432
    35.14800 94047.34518 94013.77802
    35.15200 94375.37702 93826.81348
    35.15600 94778.41503 93948.43861
    35.16000 95289.68293 94100.00429
    35.16400 95921.49996 97231.78621
    35.16800 96630.05538 98696.90817
    35.17200 97304.39288 96357.31838
    35.17600 97820.97148 97828.83892
    35.18000 98112.97259 98531.22629
    35.18400 98172.08394 99798.63615
    35.18800 98009.32574 96488.62274
    35.19200 97629.42028 95026.02609
    35.19600 97029.30411 94143.55131
    35.20000 96218.32823 97020.03914
    35.20400 95255.16274 95748.72057
    35.20800 94260.33899 97858.18247
    35.21200 93364.68512 97067.83609
    35.21600 92637.10229 95611.89659
    35.22000 92077.77565 93770.89028
    35.22400 91655.33161 93347.91343
    35.22800 91333.07583 91438.83827
    35.23200 91078.31487 92033.21316
    35.23600 90864.36459 93432.42306
    35.24000 90670.78165 92866.96487
    35.24400 90483.02718 93484.31629
    35.24800 90291.61378 88641.20259
    35.25200 90091.09046 92045.58387
    35.25600 89879.22118 90803.38488
    35.26000 89656.62324 90959.68239
    35.26400 89426.63666 90192.98616
    35.26800 89194.90229 90141.02596
    35.27200 88968.23881 87539.83919
    35.27600 88753.01366 91624.36274
    35.28000 88553.87346 90240.42598
    35.28400 88373.11575 92624.18406
    35.28800 88211.39644 90830.21555
    35.29200 88067.83945 91713.40841
    35.29600 87940.97934 92382.77549
    35.30000 87829.07233 91259.69782
    35.30400 87730.43566 90175.31874
    35.30800 87643.23177 91993.00027
    35.31200 87566.39169 92356.15707
    35.31600 87498.37858 89421.19303
    35.32000 87438.13194 88775.27225
    35.32400 87384.72313 86685.96273
    35.32800 87337.35782 89316.40964
    35.33200 87295.36487 90620.98136
    35.33600 87258.18125 90286.46926
    35.34000 87225.33751 88684.11741
    35.34400 87196.39291 89996.30982
    35.34800 87170.82061 88608.69515
    35.35200 87148.77065 89220.85427
    35.35600 87129.77551 87538.59824
    35.36000 87113.63122 88054.27808
    35.36400 87100.16799 89146.39004
    35.36800 87089.24236 86806.92359
    35.37200 87080.75936 87640.69833
    35.37600 87074.70417 92462.36901
    35.38000 87070.84909 90096.93129
    35.38400 87069.10370 88220.03568
    35.38800 87069.44132 88733.61129
    35.39200 87071.83333 87551.12474
    35.39600 87076.48537 88271.28035
    35.40000 87083.24537 88046.97417
    35.40400 87091.97881 87952.80960
    35.40800 87103.06226 87553.45074
    35.41200 87116.35730 90491.26588
    35.41600 87131.92229 87628.31550
    35.42000 87149.80995 87058.44276
    35.42400 87170.13196 88685.82714
    35.42800 87192.70756 83523.61209
    35.43200 87218.24053 88449.58520
    35.43600 87246.57037 88136.50052
    35.44000 87277.81293 88591.81550
    35.44400 87312.23490 87615.25107
    35.44800 87349.66592 87504.13150
    35.45200 87391.05810 88419.44999
    35.45600 87436.29936 90178.88250
    35.46000 87485.64299 89085.93903
    35.46400 87539.47246 89080.23080
    35.46800 87598.23833 88294.59878
    35.47200 87662.30243 88122.21095
    35.47600 87732.00593 88968.85076
    35.48000 87807.99421 88503.68326
    35.48400 87890.86696 90106.62753
    35.48800 87981.28927 88929.26358
    35.49200 88080.06278 88232.21406
    35.49600 88187.85399 87325.68579
    35.50000 88305.83374 87296.17492
    35.50400 88434.95654 88982.86874
    35.50800 88576.39197 89283.62812
    35.51200 88731.44878 88930.86235
    35.51600 88901.64293 92421.67722
    35.52000 89088.42410 85989.54065
    35.52400 89293.46992 89012.53088
    35.52800 89518.77072 88600.43002
    35.53200 89766.10578 89219.91747
    35.53600 90038.06386 93608.20447
    35.54000 90336.67645 90644.75100
    35.54400 90664.25676 90812.55222
    35.54800 91023.11672 89173.68251
    35.55200 91415.48369 91638.17279
    35.55600 91843.36629 88693.39563
    35.56000 92308.38081 95047.61945
    35.56400 92811.64991 94482.89723
    35.56800 93353.36368 92334.62696
    35.57200 93932.89094 90806.96246
    35.57600 94547.94675 94516.52474
    35.58000 95194.53269 94284.40122
    35.58400 95866.51321 95648.68836
    35.58800 96555.19672 93413.27795
    35.59200 97249.01451 96833.21899
    35.59600 97933.32438 96898.43584
    35.60000 98590.45881 97394.26678
    35.60400 99200.15747 97170.28256
    35.60800 99740.52891 98714.24974
    35.61200 100189.66993 98079.83684
    35.61600 100527.76562 97003.50373
    35.62000 100739.97766 98527.13127
    35.62400 100818.05812 101445.16800
    35.62800 100762.88189 99330.41168
    35.63200 100583.48424 98023.15582
    35.63600 100295.57415 100270.78807
    35.64000 99916.21898 97529.51176
    35.64400 99457.48993 98039.87558
    35.64800 98924.41484 99200.85197
    35.65200 98321.41683 97577.16153
    35.65600 97659.83104 98337.10352
    35.66000 96957.16385 98646.94462
    35.66400 96230.69127 94754.83614
    35.66800 95493.26927 93718.60925
    35.67200 94753.39363 93132.58019
    35.67600 94019.49861 91492.87545
    35.68000 93305.84191 91990.76305
    35.68400 92633.67909 89627.32904
    35.68800 92023.48280 92273.11617
    35.69200 91485.39669 91852.59058
    35.69600 91018.14896 90434.62966
    35.70000 90614.17017 87309.78296
    35.70400 90264.39930 89870.37689
    35.70800 89960.46116 90155.80082
    35.71200 89695.28187 90102.26115
    35.71600 89463.08508 88428.36321
    35.72000 89259.23783 89888.66424
    35.72400 89079.99429 87286.37851
    35.72800 88922.31262 88482.52156
    35.73200 88783.70054 87344.16922
    35.73600 88662.10016 89850.34423
    35.74000 88555.80429 88946.81172
    35.74400 88463.39570 88544.54228
    35.74800 88383.68604 87437.24361
    35.75200 88315.74263 87808.50930
    35.75600 88258.64998 88379.55084
    35.76000 88212.03306 84519.60363
    35.76400 88175.29315 90250.80772
    35.76800 88148.08301 86124.94585
    35.77200 88130.16004 87941.21139
    35.77600 88121.39670 85698.06616
    35.78000 88121.78260 85089.12626
    35.78400 88131.30975 85708.53867
    35.78800 88150.10418 88226.39423
    35.79200 88178.34102 87467.79574
    35.79600 88216.22683 88801.11377
    35.80000 88263.98225 87511.41758
    35.80400 88321.80813 84745.55657
    35.80800 88389.85544 86699.82893
    35.81200 88468.14014 88536.50189
    35.81600 88556.58092 87448.85566
    35.82000 88654.75736 85487.65841
    35.82400 88762.02373 87814.72304
    35.82800 88877.39172 83917.66512
    35.83200 88999.55804 85538.95819
    35.83600 89126.97955 87166.66848
    35.84000 89257.98239 89640.67789
    35.84400 89390.98329 85957.99957
    35.84800 89524.66608 90090.13373
    35.85200 89658.16230 87644.56858
    35.85600 89791.17524 88516.58429
    35.86000 89924.02710 88931.02713
    35.86400 90057.62070 86654.01039
    35.86800 90193.31147 86722.03057
    35.87200 90332.69213 87792.79467
    35.87600 90477.30016 90539.77427
    35.88000 90628.27399 88544.56599
    35.88400 90786.01671 89287.93981
    35.88800 90949.85203 86967.09381
    35.89200 91117.98440 89698.24261
    35.89600 91287.22438 89492.64354
    35.90000 91453.26117 88901.15785
    35.90400 91610.92057 91010.29701
    35.90800 91754.61452 92707.65539
    35.91200 91878.88951 90127.52894
    35.91600 91978.98823 87404.07074
    35.92000 92051.31682 90613.59610
    35.92400 92093.71103 91032.51010
    35.92800 92105.41707 91592.08895
    35.93200 92086.76780 89851.83932
    35.93600 92038.65774 89886.09794
    35.94000 91961.97491 90908.61604
    35.94400 91857.45631 92203.66605
    35.94800 91726.03422 87719.13954
    35.95200 91569.25711 89002.44811
    35.95600 91389.62515 89643.01626
    35.96000 91190.55124 95949.51605
    35.96400 90976.16221 90735.93048
    35.96800 90751.20915 90432.03356
    35.97200 90521.14504 92082.04449
    35.97600 90292.35362 90414.35916
    35.98000 90071.17160 90054.20027
    35.98400 89864.66303 89419.86583
    35.98800 89678.10794 90108.42139
    35.99200 89515.15578 89367.13529
    35.99600 89377.98442 87962.11653
    36.00000 89267.05922 88802.08307
    36.00400 89182.01273 90646.44946
    36.00800 89122.00130 86374.73457
    36.01200 89085.95161 86191.35194
    36.01600 89072.74006 87969.33928
    36.02000 89081.26732 89299.97795
    36.02400 89110.47290 86620.06401
    36.02800 89159.30023 86432.09826
    36.03200 89226.68204 86615.14724
    36.03600 89311.24488 87317.97205
    36.04000 89411.95401 89002.06515
    36.04400 89526.89317 89714.50132
    36.04800 89654.27530 89569.44660
    36.05200 89791.57327 87031.98721
    36.05600 89935.91369 87583.34164
    36.06000 90083.96385 87808.29452
    36.06400 90231.98777 89485.53820
    36.06800 90375.92474 87195.26139
    36.07200 90511.65030 88479.48696
    36.07600 90635.23620 86512.99807
    36.08000 90743.35937 86033.68088
    36.08400 90833.81187 88970.82709
    36.08800 90906.10535 90962.88359
    36.09200 90962.02444 87473.48623
    36.09600 91005.97162 87584.49230
    36.10000 91044.80090 89210.72483
    36.10400 91086.49103 87346.09675
    36.10800 91136.54579 89369.16680
    36.11200 91192.30594 89969.49158
    36.11600 91238.41127 88795.88015
    36.12000 91251.22781 89194.58184
    36.12400 91210.85209 88808.55141
    36.12800 91108.33077 89847.44593
    36.13200 90943.23346 90928.63775
    36.13600 90718.09684 88547.48010
    36.14000 90435.79685 87788.97931
    36.14400 90101.04942 91334.40990
    36.14800 89725.57324 89906.57511
    36.15200 89332.25610 89270.13172
    36.15600 88950.59569 87947.10645
    36.16000 88604.78211 87657.63246
    36.16400 88305.49433 87409.93262
    36.16800 88052.32395 86686.75866
    36.17200 87839.54637 88347.66489
    36.17600 87660.22061 89412.01748
    36.18000 87507.97226 89391.85722
    36.18400 87377.57501 86844.74818
    36.18800 87264.74016 86758.67608
    36.19200 87166.27912 88779.38436
    36.19600 87079.82044 86849.36148
    36.20000 87003.04320 88086.80248
    36.20400 86935.22670 86637.33511
    36.20800 86874.79539 87338.63559
    36.21200 86820.82797 88764.14985
    36.21600 86772.55658 88640.57752
    36.22000 86729.33207 90582.84402
    36.22400 86690.65811 91183.49041
    36.22800 86656.07699 88671.07710
    36.23200 86625.25063 86135.90757
    36.23600 86597.32217 86214.71513
    36.24000 86573.24912 85616.90779
    36.24400 86551.98068 84542.17405
    36.24800 86533.80883 85395.80874
    36.25200 86518.23158 87530.73649
    36.25600 86505.54508 86910.75627
    36.26000 86495.35049 86563.45447
    36.26400 86487.68923 87691.17635
    36.26800 86482.55814 86302.54622
    36.27200 86479.98302 85350.58536
    36.27600 86479.83945 86047.16465
    36.28000 86482.23468 86524.73665
    36.28400 86487.19328 86156.55155
    36.28800 86494.77063 87086.41849
    36.29200 86504.78643 85533.92730
    36.29600 86517.95742 85277.43789
    36.30000 86533.97525 85369.68200
    36.30400 86552.71504 86312.79274
    36.30800 86574.38091 85942.06279
    36.31200 86599.00247 87025.44719
    36.31600 86626.57937 86628.02316
    36.32000 86657.06875 85439.52018
    36.32400 86690.37090 86332.28165
    36.32800 86726.31772 87566.55871
    36.33200 86764.62599 86238.32759
    36.33600 86804.92378 87949.15850
    36.34000 86846.70268 81914.98812
    36.34400 86889.31792 82385.15065
    36.34800 86931.90064 84732.62192
    36.35200 86973.74158 84952.29448
    36.35600 87013.72493 84898.71826
    36.36000 87050.78750 86256.95790
    36.36400 87083.87576 86763.72795
    36.36800 87111.89759 86728.35727
    36.37200 87134.01430 84245.69575
    36.37600 87149.54416 82937.82248
    36.38000 87158.06192 83339.58502
    36.38400 87159.43651 85236.26448
    36.38800 87153.84567 80017.22228
    36.39200 87141.76593 83283.62105
    36.39600 87123.94008 91995.60651
    36.40000 87101.34234 88423.41342
    36.40400 87075.16061 88334.33699
    36.40800 87046.35052 87227.30480
    36.41200 87016.21535 87253.48574
    36.41600 86985.88606 87795.76029
    36.42000 86956.41696 90750.37872
    36.42400 86928.45462 88973.12011
    36.42800 86903.43772 89099.84417
    36.43200 86881.55304 87461.08762
    36.43600 86863.69635 85711.85281
    36.44000 86850.15465 88807.75628
    36.44400 86841.29881 86620.73129
    36.44800 86837.43292 88213.69079
    36.45200 86838.77159 85615.24860
    36.45600 86845.68115 87437.48491
    36.46000 86858.21944 86723.75243
    36.46400 86876.58656 85292.62643
    36.46800 86900.95695 89818.35363
    36.47200 86931.47627 87836.90248
    36.47600 86968.24837 87641.84412
    36.48000 87011.43459 86334.63029
    36.48400 87061.06330 86472.92454
    36.48800 87117.11726 85494.63238
    36.49200 87179.50719 85124.30691
    36.49600 87247.61233 87020.62528
    36.50000 87322.02570 88749.70382
    36.50400 87401.72050 86230.91380
    36.50800 87485.93711 87291.38210
    36.51200 87573.66191 86317.92406
    36.51600 87663.55432 90541.73354
    36.52000 87753.89660 87563.46111
    36.52400 87842.78835 85807.16320
    36.52800 87927.92123 88635.93208
    36.53200 88007.08873 88304.32159
    36.53600 88077.84279 89653.01296
    36.54000 88138.07041 89303.68201
    36.54400 88186.19412 88018.97179
    36.54800 88221.47698 86689.23018
    36.55200 88244.31728 88025.45226
    36.55600 88256.40193 87631.91183
    36.56000 88260.86453 88242.89783
    36.56400 88262.06635 88383.67385
    36.56800 88264.93596 86800.07926
    36.57200 88273.43331 87695.42547
    36.57600 88287.96231 85512.15735
    36.58000 88303.42865 89554.16620
    36.58400 88309.54545 88652.46495
    36.58800 88295.56839 86288.89877
    36.59200 88254.58645 83644.00181
    36.59600 88184.17033 86489.70312
    36.60000 88084.38032 86615.17284
    36.60400 87956.11170 89295.97671
    36.60800 87801.27883 87891.45496
    36.61200 87624.67397 87968.95150
    36.61600 87435.87214 88029.43593
    36.62000 87248.30575 86610.95321
    36.62400 87074.71168 86120.43550
    36.62800 86922.56495 84750.26159
    36.63200 86793.63552 85129.67791
    36.63600 86686.06073 85329.23656
    36.64000 86596.65038 78979.50790
    36.64400 86522.19615 86908.58159
    36.64800 86459.93754 87437.34935
    36.65200 86407.68175 86259.08352
    36.65600 86363.70456 87284.96904
    36.66000 86326.67778 88270.00250
    36.66400 86295.67391 88116.26073
    36.66800 86269.96689 88774.49591
    36.67200 86249.01710 87650.36770
    36.67600 86232.44242 86041.70998
    36.68000 86219.97263 86618.31784
    36.68400 86211.39223 87333.97121
    36.68800 86206.58403 86519.15710
    36.69200 86205.52056 88973.74182
    36.69600 86208.13975 87321.53128
    36.70000 86214.51578 87910.12287
    36.70400 86224.74985 86026.58456
    36.70800 86238.98760 86295.88761
    36.71200 86257.41666 86423.19230
    36.71600 86280.26239 85404.98575
    36.72000 86307.62308 87482.20053
    36.72400 86340.32472 87648.61157
    36.72800 86378.46315 85638.78657
    36.73200 86422.52723 86960.42043
    36.73600 86473.04453 87902.03536
    36.74000 86530.62313 86799.58902
    36.74400 86595.96372 87130.43556
    36.74800 86669.87974 89148.94501
    36.75200 86753.31906 86003.37568
    36.75600 86847.39517 87963.02381
    36.76000 86953.43533 85538.76173
    36.76400 87073.06094 88581.81893
    36.76800 87208.32625 87342.83016
    36.77200 87361.93330 87264.25271
    36.77600 87537.60958 88377.53949
    36.78000 87740.38556 87757.80170
    36.78400 87977.95352 89752.76755
    36.78800 88260.21320 88788.89206
    36.79200 88599.49882 90013.30871
    36.79600 89009.60413 88750.02987
    36.80000 89501.53210 89964.93987
    36.80400 90074.75812 92102.13547
    36.80800 90704.87439 93601.96307
    36.81200 91337.26221 90860.91949
    36.81600 91899.20331 94425.73482
    36.82000 92327.40770 91637.95140
    36.82400 92583.53263 92631.05781
    36.82800 92652.42067 92100.47770
    36.83200 92531.34788 91708.70538
    36.83600 92224.41266 94527.31653
    36.84000 91746.15663 89982.19555
    36.84400 91131.77972 93349.32941
    36.84800 90442.87193 90061.69367
    36.85200 89754.33318 92518.76980
    36.85600 89128.74682 92624.31170
    36.86000 88597.79320 91688.27571
    36.86400 88166.53109 90402.44136
    36.86800 87825.13163 89094.48802
    36.87200 87558.76305 88164.62900
    36.87600 87352.80534 89292.86727
    36.88000 87194.57432 84889.88539
    36.88400 87073.89009 90490.52466
    36.88800 86983.02050 87498.83955
    36.89200 86916.10424 87372.67609
    36.89600 86868.77866 85843.36141
    36.90000 86837.81268 86236.54439
    36.90400 86820.82615 85119.27593
    36.90800 86816.06981 87570.06663
    36.91200 86822.26728 88546.92402
    36.91600 86838.49793 84963.76279
    36.92000 86864.05602 84405.09731
    36.92400 86898.48598 82373.54359
    36.92800 86941.39416 86834.91898
    36.93200 86992.68805 85647.88163
    36.93600 87052.47535 89424.62063
    36.94000 87120.57639 84799.06770
    36.94400 87197.04462 90487.65076
    36.94800 87281.94700 86059.07491
    36.95200 87375.43022 88017.61024
    36.95600 87477.60598 84636.58384
    36.96000 87588.58278 85310.53092
    36.96400 87708.44510 84346.09384
    36.96800 87837.14848 86317.56438
    36.97200 87974.72518 89275.20661
    36.97600 88121.03452 86108.69848
    36.98000 88275.75677 86007.61504
    36.98400 88438.28712 87564.60784
    36.98800 88607.58322 89681.49720
    36.99200 88781.96788 88487.25300
    36.99600 88958.89223 87614.78272
    37.00000 89134.66839 88781.61450
    37.00400 89304.54213 86336.02239
    37.00800 89462.69498 88110.51773
    37.01200 89602.67661 88105.67635
    37.01600 89718.03775 87679.93868
    37.02000 89803.06948 86196.49598
    37.02400 89853.47978 87876.40949
    37.02800 89866.89013 87617.25780
    37.03200 89843.07944 87829.25833
    37.03600 89784.00744 86651.64160
    37.04000 89693.73123 85890.71181
    37.04400 89577.96606 87197.58305
    37.04800 89443.52603 84259.97814
    37.05200 89297.60356 88700.50880
    37.05600 89147.04727 87536.26873
    37.06000 88997.80336 85183.12587
    37.06400 88854.64262 89134.40896
    37.06800 88721.06230 92581.21531
    37.07200 88599.50702 90329.35084
    37.07600 88491.53789 90161.06804
    37.08000 88397.95019 88688.34484
    37.08400 88318.74057 87609.22007
    37.08800 88252.98169 87313.85821
    37.09200 88198.64247 87320.30725
    37.09600 88152.38757 88088.17167
    37.10000 88109.69535 88699.81166
    37.10400 88065.31086 88899.13594
    37.10800 88013.96825 88261.40177
    37.11200 87951.14081 88068.55321
    37.11600 87873.58511 89470.66221
    37.12000 87779.62628 86580.41322
    37.12400 87669.21255 85945.14925
    37.12800 87543.99454 86885.58475
    37.13200 87407.00251 87523.20821
    37.13600 87262.94906 88619.82090
    37.14000 87116.75258 89709.21962
    37.14400 86973.37035 89853.34222
    37.14800 86836.92855 88418.93362
    37.15200 86710.31062 88818.99520
    37.15600 86595.13926 91307.30064
    37.16000 86491.98440 88188.20842
    37.16400 86400.43116 88684.43284
    37.16800 86319.92930 87138.72388
    37.17200 86249.60341 84068.46642
    37.17600 86188.49493 85159.91684
    37.18000 86135.57388 92367.00213
    37.18400 86090.34770 87961.74627
    37.18800 86051.89511 86441.22921
    37.19200 86019.58580 90366.68230
    37.19600 85992.89293 90246.01492
    37.20000 85971.38688 91034.48134
    37.20400 85954.73915 92291.85608
    37.20800 85942.65096 89225.23934
    37.21200 85935.00601 87857.34062
    37.21600 85931.66333 90093.41966
    37.22000 85932.47927 86724.80597
    37.22400 85937.66204 92288.08955
    37.22800 85947.15996 91756.23667
    37.23200 85961.04313 88420.56435
    37.23600 85979.49910 84906.59702
    37.24000 86002.42745 88571.28678
    37.24400 86030.54243 89273.97975
    37.24800 86063.80179 87848.40512
    37.25200 86102.43296 86546.58849
    37.25600 86146.65698 88794.03677
    37.26000 86196.66988 87585.13966
    37.26400 86252.61968 86212.03091
    37.26800 86314.59329 85879.86567
    37.27200 86382.66826 85901.58529
    37.27600 86456.49406 87550.28777
    37.28000 86535.74330 84928.71375
    37.28400 86620.00606 87142.77218
    37.28800 86708.54743 86369.59915
    37.29200 86800.78508 92392.86331
    37.29600 86895.73205 87034.89339
    37.30000 86992.43270 86933.15108
    37.30400 87089.87464 86836.87793
    37.30800 87186.96508 89539.20863
    37.31200 87282.45682 90402.77378
    37.31600 87374.82976 85678.01119
    37.32000 87462.16387 91395.32055
    37.32400 87542.07253 91405.29778
    37.32800 87611.77690 88793.63302
    37.33200 87668.36226 88321.81388
    37.33600 87709.16945 88260.81416
    37.34000 87732.20029 87894.79375
    37.34400 87736.42149 87101.00637
    37.34800 87721.92750 86791.41484
    37.35200 87689.99163 89244.41458
    37.35600 87643.04016 88796.57163
    37.36000 87584.54087 87187.43655
    37.36400 87518.76019 90359.85118
    37.36800 87450.36732 87705.48362
    37.37200 87383.94520 85904.96887
    37.37600 87323.58566 87210.04666
    37.38000 87272.47685 86173.96306
    37.38400 87233.03905 86252.08501
    37.38800 87206.60442 86016.60102
    37.39200 87194.03611 89892.62620
    37.39600 87195.75790 88326.53852
    37.40000 87211.78178 91216.45525
    37.40400 87241.88056 88904.35580
    37.40800 87285.65740 88601.92204
    37.41200 87342.57772 89417.62797
    37.41600 87412.00603 89073.55462
    37.42000 87493.09533 87886.25983
    37.42400 87585.13880 89624.28213
    37.42800 87687.03292 86556.73742
    37.43200 87797.63266 87660.78760
    37.43600 87915.67290 86954.63696
    37.44000 88039.80008 90110.89058
    37.44400 88168.63648 91281.79037
    37.44800 88300.85111 91312.08760
    37.45200 88435.32735 91989.60418
    37.45600 88571.33642 92054.54414
    37.46000 88708.78992 89136.45875
    37.46400 88848.54383 89906.36297
    37.46800 88992.71436 87285.98950
    37.47200 89144.89915 92207.23151
    37.47600 89310.19382 91689.55731
    37.48000 89494.34014 92663.11390
    37.48400 89701.87253 90006.25601
    37.48800 89932.55278 91372.85878
    37.49200 90177.05099 92186.67412
    37.49600 90414.95813 91946.72890
    37.50000 90618.80712 90398.06588
    37.50400 90763.28025 92225.35161
    37.50800 90832.98398 91693.78300
    37.51200 90821.79559 91113.56434
    37.51600 90722.00421 90503.62044
    37.52000 90521.96280 89273.00305
    37.52400 90224.75949 90275.14617
    37.52800 89851.07053 90463.16207
    37.53200 89431.99213 89757.28632
    37.53600 89002.06254 88885.12977
    37.54000 88590.11886 90228.64761
    37.54400 88212.14387 88958.79003
    37.54800 87872.69316 91091.82441
    37.55200 87576.92167 90505.04929
    37.55600 87334.51247 91360.25267
    37.56000 87144.59865 93342.15276
    37.56400 86997.52976 90771.50691
    37.56800 86883.81095 89965.80869
    37.57200 86796.47062 93734.40664
    37.57600 86730.65134 89457.77885
    37.58000 86682.96424 89032.24647
    37.58400 86651.15399 89801.05202
    37.58800 86633.28423 89136.99066
    37.59200 86627.90168 89250.27348
    37.59600 86634.34314 89542.28655
    37.60000 86652.00634 89529.86424
    37.60400 86680.49120 88253.38153
    37.60800 86719.55338 90331.10555
    37.61200 86769.11521 90680.91481
    37.61600 86829.03330 90988.95000
    37.62000 86899.13121 89609.22325
    37.62400 86979.38082 90299.24083
    37.62800 87069.81404 89724.69197
    37.63200 87170.19911 89671.27576
    37.63600 87280.09935 88562.55092
    37.64000 87398.96977 90133.73847
    37.64400 87525.96549 91832.81984
    37.64800 87660.16704 91743.29022
    37.65200 87799.98751 92641.90187
    37.65600 87943.55352 89777.67820
    37.66000 88088.57388 90437.58531
    37.66400 88232.35238 90358.69513
    37.66800 88371.84662 92320.46978
    37.67200 88503.74933 94443.13824
    37.67600 88624.70766 89634.39158
    37.68000 88731.40025 88018.33402
    37.68400 88821.21175 90362.92046
    37.68800 88891.75377 89583.66829
    37.69200 88941.83512 94306.74619
    37.69600 88971.29814 90728.75131
    37.70000 88981.23279 93496.96757
    37.70400 88974.00083 91079.09500
    37.70800 88953.20602 92486.04231
    37.71200 88923.63270 91668.19313
    37.71600 88891.14305 91254.08863
    37.72000 88863.46849 91412.30301
    37.72400 88850.45186 91032.71524
    37.72800 88866.61944 93634.23024
    37.73200 88932.81256 92696.17555
    37.73600 89070.21567 92504.49822
    37.74000 89273.17161 92244.89291
    37.74400 89488.91270 93495.66174
    37.74800 89663.95943 91634.52625
    37.75200 89792.54672 94350.20263
    37.75600 89892.99553 92017.15440
    37.76000 89977.78634 91358.36325
    37.76400 90046.47544 93381.13372
    37.76800 90085.49630 91702.56788
    37.77200 90076.26179 90640.60283
    37.77600 90023.43271 92066.91929
    37.78000 89974.76437 94068.50396
    37.78400 89973.95027 90355.91902
    37.78800 90015.46987 93101.81293
    37.79200 90070.59629 91642.13287
    37.79600 90116.30573 94794.43989
    37.80000 90139.70319 94071.19017
    37.80400 90136.31242 94270.18727
    37.80800 90107.20855 96061.98262
    37.81200 90058.18191 95156.95636
    37.81600 89998.34276 95256.58163
    37.82000 89938.67060 94756.76971
    37.82400 89890.24533 95709.40226
    37.82800 89862.62887 95581.66917
    37.83200 89862.89254 96120.33378
    37.83600 89895.37976 93998.31073
    37.84000 89962.33229 92497.48264
    37.84400 90064.08399 96423.43482
    37.84800 90199.89008 95703.79430
    37.85200 90368.23199 93218.39983
    37.85600 90567.03624 96687.22483
    37.86000 90793.74934 96414.40121
    37.86400 91045.34804 94327.75749
    37.86800 91318.00199 95330.55248
    37.87200 91608.25476 96055.73994
    37.87600 91911.04452 94650.27682
    37.88000 92221.02407 97132.89974
    37.88400 92532.33219 98102.43720
    37.88800 92838.73734 97085.76570
    37.89200 93133.86772 97962.60276
    37.89600 93411.52456 98048.79135
    37.90000 93665.94651 98659.18464
    37.90400 93892.32039 96021.28453
    37.90800 94086.95375 96781.81999
    37.91200 94247.65585 95320.92610
    37.91600 94373.96160 96422.76165
    37.92000 94467.28312 98847.90794
    37.92400 94530.91771 98509.28452
    37.92800 94569.81719 98026.40826
    37.93200 94589.95202 99513.53249
    37.93600 94597.04427 95914.94191
    37.94000 94594.58518 97598.41197
    37.94400 94581.71796 96490.44767
    37.94800 94552.72149 98570.08240
    37.95200 94499.62835 99447.22774
    37.95600 94416.35171 98554.44794
    37.96000 94300.22151 100296.26341
    37.96400 94148.58827 99515.49982
    37.96800 93953.66129 98928.71943
    37.97200 93706.82363 97917.73041
    37.97600 93408.18386 98089.05243
    37.98000 93066.68700 97290.54941
    37.98400 92695.28845 98151.41845
    37.98800 92307.31086 96955.70078
    37.99200 91912.00088 97562.43712
    37.99600 91513.62687 95760.51425
    38.00000 91115.64063 96910.84895
    38.00400 90725.98662 94538.75275
    38.00800 90353.65958 95444.30125
    38.01200 90000.96630 92972.97976
    38.01600 89665.75708 93190.10789
    38.02000 89345.98949 95335.50439
    38.02400 89040.73076 89286.25959
    38.02800 88749.82245 90988.22663
    38.03200 88473.36861 89700.02827
    38.03600 88211.53398 93424.66951
    38.04000 87964.33176 92233.91772
    38.04400 87731.82491 94467.45587
    38.04800 87513.62810 91740.00363
    38.05200 87309.30834 88827.68569
    38.05600 87118.31720 90730.01331
    38.06000 86940.02448 92858.82796
    38.06400 86773.74845 89270.13834
    38.06800 86618.78159 93025.87041
    38.07200 86474.41218 90411.07533
    38.07600 86339.96389 90307.55260
    38.08000 86214.70993 92683.76995
    38.08400 86098.03246 89374.13041
    38.08800 85989.30270 89124.63644
    38.09200 85887.84843 88349.14514
    38.09600 85793.18162 93160.95040
    38.10000 85704.78819 90163.57819
    38.10400 85622.19089 89402.88783
    38.10800 85544.94831 89689.79433
    38.11200 85472.65346 89190.18537
    38.11600 85404.93208 89737.63199
    38.12000 85341.44085 88369.29161
    38.12400 85281.86540 88615.00430
    38.12800 85225.91844 92662.27562
    38.13200 85173.33772 92033.06359
    38.13600 85123.88422 89142.29608
    38.14000 85077.34026 89992.75332
    38.14400 85033.50426 90347.28561
    38.14800 84992.19809 89421.64527
    38.15200 84953.16394 87437.80768
    38.15600 84916.45199 89498.32722
    38.16000 84881.82317 86373.07038
    38.16400 84849.15737 85257.07854
    38.16800 84818.34500 88352.06396
    38.17200 84789.27456 91122.58842
    38.17600 84761.87410 89519.18039
    38.18000 84735.97728 90421.31257
    38.18400 84711.67428 89993.39573
    38.18800 84688.81200 87508.04980
    38.19200 84667.35084 86776.05668
    38.19600 84647.20330 86980.39025
    38.20000 84628.15565 88720.93960
    38.20400 84610.55660 91323.92597
    38.20800 84594.08640 90994.71242
    38.21200 84578.91726 90776.50426
    38.21600 84564.92869 86856.47753
    38.22000 84552.12134 86963.16602
    38.22400 84540.46437 88382.54260
    38.22800 84529.96557 86400.03147
    38.23200 84520.63406 85548.01731
    38.23600 84512.48328 87772.95502
    38.24000 84505.51029 89183.56842
    38.24400 84499.78386 87328.57561
    38.24800 84495.08582 86091.75816
    38.25200 84491.95245 87759.53195
    38.25600 84490.19657 87622.90187
    38.26000 84489.84718 85597.63040
    38.26400 84491.07044 86905.53654
    38.26800 84493.92652 88629.41667
    38.27200 84498.52663 86376.72635
    38.27600 84505.05961 85810.32673
    38.28000 84513.55533 87355.74991
    38.28400 84524.34091 86627.71857
    38.28800 84537.57942 88359.49059
    38.29200 84553.52055 88246.80378
    38.29600 84572.45258 85625.64753
    38.30000 84594.70812 81915.16554
    38.30400 84620.67101 82962.58094
    38.30800 84650.78143 87943.59021
    38.31200 84685.55363 86485.60836
    38.31600 84725.52786 87899.92149
    38.32000 84771.49526 89671.82841
    38.32400 84824.19145 85777.52170
    38.32800 84884.53142 92086.48882
    38.33200 84953.57369 88074.37300
    38.33600 85032.54415 87165.10740
    38.34000 85122.86604 84002.14643
    38.34400 85226.20051 88090.08355
    38.34800 85344.50389 86824.61555
    38.35200 85480.13415 86388.13073
    38.35600 85635.84835 85091.58759
    38.36000 85815.03242 86192.51646
    38.36400 86021.79269 87327.17341
    38.36800 86260.92038 86782.33972
    38.37200 86537.65845 89357.52319
    38.37600 86856.97091 90536.89137
    38.38000 87221.92109 90821.69218
    38.38400 87631.34073 90414.76084
    38.38800 88076.97135 87426.99867
    38.39200 88543.11479 92718.88941
    38.39600 89010.97721 90488.57881
    38.40000 89467.00478 89254.14757
    38.40400 89907.52303 92748.80493
    38.40800 90324.16432 91832.14297
    38.41200 90669.41997 89997.91638
    38.41600 90862.16499 89640.41650
    38.42000 90856.35911 95950.99574
    38.42400 90664.87078 92733.23229
    38.42800 90328.46786 92972.90236
    38.43200 89888.17117 90983.19745
    38.43600 89371.44395 93271.37593
    38.44000 88788.91050 89420.40311
    38.44400 88152.32919 86241.57455
    38.44800 87511.26540 88701.80061
    38.45200 86946.50396 89024.15555
    38.45600 86503.90684 90121.01047
    38.46000 86177.10936 89025.15157
    38.46400 85939.58395 84259.07458
    38.46800 85766.66394 83670.86191
    38.47200 85640.54888 85426.94097
    38.47600 85549.33290 82932.29020
    38.48000 85485.16910 83141.24369
    38.48400 85442.81419 84017.97418
    38.48800 85418.68129 85061.19958
    38.49200 85410.27145 85052.92107
    38.49600 85415.83139 84435.38914
    38.50000 85434.16072 83335.97578
    38.50400 85464.40170 81867.23066
    38.50800 85506.17146 81363.27497
    38.51200 85559.16738 85627.15651
    38.51600 85623.33595 87691.60250
    38.52000 85698.77813 83875.91054
    38.52400 85785.71125 86100.08198
    38.52800 85884.41282 88352.35836
    38.53200 85995.36551 87148.70193
    38.53600 86118.93909 86138.34709
    38.54000 86255.53965 87333.47740
    38.54400 86405.62747 87541.70854
    38.54800 86569.48956 85481.26892
    38.55200 86747.37336 81100.43678
    38.55600 86939.03771 85659.14573
    38.56000 87145.00966 84458.21187
    38.56400 87364.47012 85975.13354
    38.56800 87596.50327 87895.08230
    38.57200 87839.80527 86408.71908
    38.57600 88092.67413 88603.26936
    38.58000 88353.14404 94207.58618
    38.58400 88619.24847 88584.47698
    38.58800 88889.41245 86907.30635
    38.59200 89162.68287 89916.28081
    38.59600 89439.46562 88980.50762
    38.60000 89720.90497 87802.60128
    38.60400 90008.79907 85935.15009
    38.60800 90304.86195 92310.45036
    38.61200 90611.06734 92356.62322
    38.61600 90931.60415 89413.96912
    38.62000 91277.63304 91664.60927
    38.62400 91669.21995 91580.23343
    38.62800 92121.41076 90108.97924
    38.63200 92604.11857 90617.19708
    38.63600 93024.01452 93187.99148
    38.64000 93290.18877 89732.09698
    38.64400 93379.88462 94579.00563
    38.64800 93317.93777 96308.83158
    38.65200 93131.70642 91873.04212
    38.65600 92832.92218 93404.89610
    38.66000 92415.48864 95530.20415
    38.66400 91873.01008 90641.88751
    38.66800 91241.61801 91336.46426
    38.67200 90616.10579 91008.77801
    38.67600 90082.54194 88990.39233
    38.68000 89657.68109 86938.22098
    38.68400 89314.12632 92551.47511
    38.68800 89021.06694 88250.49481
    38.69200 88757.08203 84573.15988
    38.69600 88510.28228 84280.66749
    38.70000 88274.93280 87658.98483
    38.70400 88049.58819 86881.56827
    38.70800 87835.29707 85680.93878
    38.71200 87634.37856 83608.00559
    38.71600 87449.50002 82527.89534
    38.72000 87282.95302 85586.85345
    38.72400 87136.34723 83962.38355
    38.72800 87010.45232 86714.10392
    38.73200 86905.31033 84886.06495
    38.73600 86820.40030 84077.21477
    38.74000 86754.81559 83324.25685
    38.74400 86707.40672 86931.25439
    38.74800 86676.87747 84020.95298
    38.75200 86661.83441 85593.52808
    38.75600 86660.83961 80457.34890
    38.76000 86672.31746 84584.67873
    38.76400 86694.85813 87393.10248
    38.76800 86726.78699 84689.62869
    38.77200 86766.43164 86232.09717
    38.77600 86812.06059 84663.04179
    38.78000 86861.85911 87401.91761
    38.78400 86913.91403 86116.94490
    38.78800 86966.19713 84592.57227
    38.79200 87016.55034 82704.45006
    38.79600 87062.69600 89692.09529
    38.80000 87102.32807 81281.49288
    38.80400 87133.23874 81777.48949
    38.80800 87153.47294 85827.00806
    38.81200 87161.96946 81829.45142
    38.81600 87158.34485 86092.53375
    38.82000 87143.63277 86043.80197
    38.82400 87120.59207 86059.93399
    38.82800 87094.23610 86103.36998
    38.83200 87072.59500 86394.38169
    38.83600 87067.67396 85556.66472
    38.84000 87095.77455 86315.28826
    38.84400 87175.78046 88194.26201
    38.84800 87318.46815 86638.48944
    38.85200 87506.62477 83939.90178
    38.85600 87687.67091 88052.15447
    38.86000 87804.75846 91220.42108
    38.86400 87832.94346 86386.94093
    38.86800 87775.27579 83336.95156
    38.87200 87639.93677 83965.80457
    38.87600 87428.39845 84065.38541
    38.88000 87135.87227 83950.86351
    38.88400 86762.00012 88560.97059
    38.88800 86332.28716 84295.32435
    38.89200 85904.03116 82596.40325
    38.89600 85533.60471 85656.73196
    38.90000 85241.73665 82858.84650
    38.90400 85019.28013 80874.03271
    38.90800 84848.77733 86162.52846
    38.91200 84715.26946 87301.67749
    38.91600 84607.75184 81462.77269
    38.92000 84519.14410 81735.40541
    38.92400 84444.62973 81793.52230
    38.92800 84381.08409 81580.36412
    38.93200 84326.38419 84635.74508
    38.93600 84279.03409 85384.39900
    38.94000 84237.91867 79736.99920
    38.94400 84202.27508 76798.47662
    38.94800 84171.45290 79015.26849
    38.95200 84144.97165 84553.24052
    38.95600 84122.45507 78683.48090
    38.96000 84103.60611 81210.01875
    38.96400 84088.10129 80940.74539
    38.96800 84075.99071 85652.11850
    38.97200 84067.02477 79985.12064
    38.97600 84061.10682 87499.51769
    38.98000 84058.16598 82004.20667
    38.98400 84058.16638 79667.49651
    38.98800 84061.08059 76477.18552
    38.99200 84066.90099 82038.25744
    38.99600 84075.66849 83529.95038
    39.00000 84087.37472 82476.94779
    39.00400 84101.96692 84008.18596
    39.00800 84119.51113 83882.76530
    39.01200 84140.01290 81126.89454
    39.01600 84163.43852 80557.54683
    39.02000 84189.79559 81729.83874
    39.02400 84218.74015 77599.52830
    39.02800 84250.67709 81257.27352
    39.03200 84285.16667 82900.49948
    39.03600 84321.95839 83078.31746
    39.04000 84360.71679 78559.19497
    39.04400 84401.02946 80614.63499
    39.04800 84442.24791 82571.83604
    39.05200 84483.80473 82262.81506
    39.05600 84524.89942 83242.45112
    39.06000 84564.67522 88160.56972
    39.06400 84602.23898 87017.60588
    39.06800 84636.60951 84101.17697
    39.07200 84666.94459 82363.60197
    39.07600 84692.40983 75344.22672
    39.08000 84712.31999 78851.30001
    39.08400 84726.09257 79943.84065
    39.08800 84733.62372 77588.99180
    39.09200 84734.87523 78051.79410
    39.09600 84730.18646 79755.54604
    39.10000 84720.09885 76484.23675
    39.10400 84705.37810 79270.84087
    39.10800 84686.85192 80230.43261
    39.11200 84665.77168 78929.18246
    39.11600 84642.98415 79258.55322
    39.12000 84619.91399 77764.67313
    39.12400 84597.44994 78734.77255
    39.12800 84576.57481 81272.64423
    39.13200 84558.17513 80807.70828
    39.13600 84543.01965 76719.55295
    39.14000 84531.74135 85557.16710
    39.14400 84524.97610 76663.36605
    39.14800 84523.22878 75048.57637
    39.15200 84526.93649 75445.05284
    39.15600 84536.41222 77866.80149
    39.16000 84551.95815 81659.91564
    39.16400 84573.83216 85591.38900
    39.16800 84602.25191 78307.23417
    39.17200 84637.39488 78973.21815
    39.17600 84679.39419 80635.37307
    39.18000 84728.33027 78356.28385
    39.18400 84784.21757 82559.40154
    39.18800 84846.98641 76530.15327
    39.19200 84916.45962 79040.21104
    39.19600 84992.32342 75309.89408
    39.20000 85074.09273 79676.65780
    39.20400 85161.04149 75634.39382
    39.20800 85252.25872 77765.57884
    39.21200 85346.10191 77541.24375
    39.21600 85441.78122 85915.62294
    39.22000 85536.94445 79086.71309
    39.22400 85629.28584 78595.54550
    39.22800 85716.17321 80358.42762
    39.23200 85794.73032 80643.75918
    39.23600 85861.97260 77785.64103
    39.24000 85914.99216 78269.93108
    39.24400 85951.19626 82648.17807
    39.24800 85968.55095 81304.44226
    39.25200 85965.82063 82348.16738
    39.25600 85942.76678 79436.15201
    39.26000 85900.29350 83889.53565
    39.26400 85840.54716 80223.93614
    39.26800 85766.99986 84874.65035
    39.27200 85684.50455 76232.49149
    39.27600 85599.25439 76807.15684
    39.28000 85518.59317 80755.52608
    39.28400 85449.38941 81370.17243
    39.28800 85393.79400 80519.65035
    39.29200 85344.20219 75333.98539
    39.29600 85286.94525 79326.73044
    39.30000 85214.20227 82273.08728
    39.30400 85126.49729 80508.86030
    39.30800 85026.45309 83923.68772
    39.31200 84915.15650 89374.80090
    39.31600 84791.49206 82563.99654
    39.32000 84653.72773 78814.36429
    39.32400 84504.08732 78520.87813
    39.32800 84353.66811 76908.41507
    39.33200 84217.71017 76064.14449
    39.33600 84103.84213 77086.69585
    39.34000 84010.78896 73704.99095
    39.34400 83934.21523 81040.64050
    39.34800 83870.08833 77280.41354
    39.35200 83815.41591 77786.11649
    39.35600 83768.13981 78823.04683
    39.36000 83726.96285 80058.55641
    39.36400 83690.83080 78804.99095
    39.36800 83658.80464 80599.46221
    39.37200 83630.53353 78302.23570
    39.37600 83605.59724 76312.34566
    39.38000 83583.65445 78368.61735
    39.38400 83564.42080 75076.11575
    39.38800 83547.65379 79436.01251
    39.39200 83533.14168 78776.75652
    39.39600 83520.69490 70912.67829
    39.40000 83510.13887 76740.85364
    39.40400 83501.30802 76199.64928
    39.40800 83494.04071 74741.13997
    39.41200 83488.17505 77409.70836
    39.41600 83483.54596 85945.37786
    39.42000 83479.98369 75227.77595
    39.42400 83477.31440 78606.15673
    39.42800 83475.36286 78590.70105
    39.43200 83473.95781 75385.69417
    39.43600 83472.93968 80748.50479
    39.44000 83472.17038 73854.67935
    39.44400 83471.54457 78815.91192
    39.44800 83471.00151 76593.39143
    39.45200 83470.53702 77467.89569
    39.45600 83470.21529 74238.75758
    39.46000 83470.18115 74849.37467
    39.46400 83470.67606 79357.27195
    39.46800 83472.07410 75227.77967
    39.47200 83474.90205 79805.03161
    39.47600 83479.77707 80140.66748
    39.48000 83487.60400 84298.20756
    39.48400 83500.12287 83140.17057
    39.48800 83519.12205 86368.21022
    39.49200 83547.20714 81196.67935
    39.49600 83587.41670 85188.10005
    39.50000 83642.21783 82572.50559
    39.50400 83710.93485 80511.97206
    39.50800 83786.27398 83513.75865
    39.51200 83856.64613 83134.75891
    39.51600 83912.12911 90625.92283
    39.52000 83949.04745 81782.26716
    39.52400 83967.04293 80916.45051
    39.52800 83966.68162 81429.59931
    39.53200 83947.73243 83315.01986
    39.53600 83910.00711 82470.13092
    39.54000 83856.09454 78228.34806
    39.54400 83794.27671 79786.32304
    39.54800 83736.72880 81795.73976
    39.55200 83692.52105 80805.93507
    39.55600 83664.37821 82140.34327
    39.56000 83650.70507 83032.65088
    39.56400 83648.80066 82636.89409
    39.56800 83656.20823 80821.05269
    39.57200 83671.04173 82216.27461
    39.57600 83692.19337 81822.16631
    39.58000 83718.84490 79121.17350
    39.58400 83750.54962 83085.28473
    39.58800 83787.11724 79755.61815
    39.59200 83828.32262 82163.31027
    39.59600 83874.48376 81675.88638
    39.60000 83925.53695 82486.58169
    39.60400 83981.60202 83882.49548
    39.60800 84042.81474 84800.13811
    39.61200 84109.30976 82600.38744
    39.61600 84181.23140 85613.54949
    39.62000 84258.61352 83735.87121
    39.62400 84341.51822 81130.14210
    39.62800 84429.92870 82257.14103
    39.63200 84523.76130 80810.30947
    39.63600 84622.86728 83162.68494
    39.64000 84727.04291 81874.31825
    39.64400 84836.05329 81735.41116
    39.64800 84949.66026 83912.30841
    39.65200 85067.72617 85410.43986
    39.65600 85190.05917 81681.37892
    39.66000 85317.28098 82041.80362
    39.66400 85449.81201 85721.58861
    39.66800 85588.74271 84497.28818
    39.67200 85735.73228 83196.21421
    39.67600 85893.03905 86156.53592
    39.68000 86063.43488 82829.54071
    39.68400 86249.92350 87271.80389
    39.68800 86455.16112 86650.90341
    39.69200 86680.49192 82346.74960
    39.69600 86924.63389 83928.38638
    39.70000 87182.36392 86714.46594
    39.70400 87443.97714 84689.36961
    39.70800 87696.31103 82192.25519
    39.71200 87925.24888 88824.06653
    39.71600 88118.05175 81955.46056
    39.72000 88262.51595 90202.89649
    39.72400 88345.93446 89900.07477
    39.72800 88354.06649 91984.92762
    39.73200 88279.97244 93619.51517
    39.73600 88128.38459 87909.77115
    39.74000 87913.54655 89758.27089
    39.74400 87653.72391 90048.11975
    39.74800 87366.59776 89545.33449
    39.75200 87066.45113 87779.46141
    39.75600 86765.02149 89043.57743
    39.76000 86474.80766 90408.25572
    39.76400 86208.51175 93950.94492
    39.76800 85973.18940 88024.68467
    39.77200 85767.92098 87751.62906
    39.77600 85586.55700 87241.74188
    39.78000 85422.14036 86777.78393
    39.78400 85268.95604 85513.12959
    39.78800 85123.14107 85304.27328
    39.79200 84982.63380 83817.43956
    39.79600 84846.86079 87485.83156
    39.80000 84716.32411 84484.06626
    39.80400 84592.10898 86686.94412
    39.80800 84475.45700 86761.31134
    39.81200 84367.36818 85955.13066
    39.81600 84268.53772 86986.23443
    39.82000 84179.22314 85704.72831
    39.82400 84099.32214 85295.13145
    39.82800 84028.47016 83558.49468
    39.83200 83966.14578 87061.64875
    39.83600 83911.72505 86489.48670
    39.84000 83864.58692 88003.70521
    39.84400 83824.12297 84951.82650
    39.84800 83789.76658 82193.59633
    39.85200 83761.00590 84764.42150
    39.85600 83737.38913 85421.74481
    39.86000 83718.52875 86742.69345
    39.86400 83704.12950 86849.12146
    39.86800 83693.83276 87191.16205
    39.87200 83687.45922 83816.19826
    39.87600 83684.83428 83515.47126
    39.88000 83685.82872 83964.76184
    39.88400 83690.35386 87839.46647
    39.88800 83698.35766 85519.00027
    39.89200 83709.82782 86088.70277
    39.89600 83724.77578 88095.34859
    39.90000 83743.21584 87079.53096
    39.90400 83765.22254 82070.89915
    39.90800 83790.87726 90495.53858
    39.91200 83820.28173 85801.58489
    39.91600 83853.55861 83206.93355
    39.92000 83890.85395 82400.99494
    39.92400 83932.34492 89998.03699
    39.92800 83978.23096 84978.63199
    39.93200 84028.74703 85775.19050
    39.93600 84084.03338 87240.74694
    39.94000 84144.76267 82766.43055
    39.94400 84211.08040 86092.83735
    39.94800 84283.27280 81606.68264
    39.95200 84361.47714 85728.64236
    39.95600 84445.59135 86286.09287
    39.96000 84534.89466 87096.65816
    39.96400 84628.35828 85807.80495
    39.96800 84723.64858 87367.20410
    39.97200 84817.95461 85036.26418
    39.97600 84907.27736 84730.54737
    39.98000 84987.23638 84007.26051
    39.98400 85053.44783 84485.65445
    39.98800 85102.08767 83290.62693
    39.99200 85130.38416 83974.98453
    39.99600 85136.95730 85769.83433
    40.00000 85121.98798 83990.19239
    40.00400 85087.23175 85453.24454
    40.00800 85035.87962 85123.04710
    40.01200 84972.25068 88470.47232
    40.01600 84901.32170 85179.59682
    40.02000 84828.16030 84381.43480
    40.02400 84757.38682 82885.85418
    40.02800 84692.79203 84710.45084
    40.03200 84637.17360 82717.35790
    40.03600 84592.36629 82996.92390
    40.04000 84559.39075 83622.75113
    40.04400 84538.48797 83317.17775
    40.04800 84530.14724 83006.42910
    40.05200 84533.88564 84056.74587
    40.05600 84549.29584 84650.86342
    40.06000 84575.87430 82717.43418
    40.06400 84612.93097 85183.46940
    40.06800 84660.02855 82172.86056
    40.07200 84716.29652 84942.39436
    40.07600 84780.84928 84985.58667
    40.08000 84852.63707 87348.71687
    40.08400 84930.34315 82848.41176
    40.08800 85012.42445 85153.04178
    40.09200 85097.14840 85804.79689
    40.09600 85182.27954 85602.86828
    40.10000 85265.39608 84558.55104
    40.10400 85343.90959 84630.83160
    40.10800 85415.22034 84971.84779
    40.11200 85476.91167 87537.98428
    40.11600 85526.95325 87459.95503
    40.12000 85563.88016 85282.44988
    40.12400 85586.93272 82786.29243
    40.12800 85596.07200 81455.55983
    40.13200 85591.86547 85377.99349
    40.13600 85576.31349 85637.17988
    40.14000 85551.56561 85658.41512
    40.14400 85520.21310 88684.94943
    40.14800 85483.89248 85361.79856
    40.15200 85441.60070 84544.52811
    40.15600 85389.29148 83399.14768
    40.16000 85322.30134 89211.75786
    40.16400 85238.51446 86322.54417
    40.16800 85138.90956 82657.02063
    40.17200 85025.79572 84290.03887
    40.17600 84901.77546 86565.95783
    40.18000 84768.82651 84238.10597
    40.18400 84629.56923 82409.51277
    40.18800 84489.18505 82036.60174
    40.19200 84354.75178 83587.69644
    40.19600 84233.14001 82359.98655
    40.20000 84127.86763 81734.24587
    40.20400 84038.91032 82435.25632
    40.20800 83964.38591 84941.69718
    40.21200 83902.00059 81483.60956
    40.21600 83849.68144 83665.24931
    40.22000 83805.73867 82490.16956
    40.22400 83768.85162 82713.21816
    40.22800 83738.00452 81097.94783
    40.23200 83712.42187 80763.36189
    40.23600 83691.48665 81013.05197
    40.24000 83674.78434 80058.43306
    40.24400 83661.93597 79781.20623
    40.24800 83652.66700 82287.53789
    40.25200 83646.76748 81946.98137
    40.25600 83644.07948 84721.47605
    40.26000 83644.48689 82001.88815
    40.26400 83647.90454 81132.52276
    40.26800 83654.27516 82250.31509
    40.27200 83663.52340 79383.33449
    40.27600 83675.67536 81165.93772
    40.28000 83690.65219 78298.94826
    40.28400 83708.38706 80385.96408
    40.28800 83728.77603 77066.37387
    40.29200 83751.66370 79214.24860
    40.29600 83776.75120 80198.23081
    40.30000 83803.69830 81263.76878
    40.30400 83831.94101 81945.09082
    40.30800 83860.79798 79628.13521
    40.31200 83889.39951 77161.84349
    40.31600 83916.70729 79917.09468
    40.32000 83941.63309 80642.71801
    40.32400 83963.00984 81055.06863
    40.32800 83979.76376 85225.56840
    40.33200 83990.99558 79040.56189
    40.33600 83996.06667 78496.93860
    40.34000 83994.65824 81905.97179
    40.34400 83986.79740 81458.17442
    40.34800 83972.85094 82620.21666
    40.35200 83953.49059 78905.20304
    40.35600 83929.63322 81595.82040
    40.36000 83902.35866 82748.35311
    40.36400 83872.89237 82323.81874
    40.36800 83842.23892 84332.69600
    40.37200 83811.39357 80107.83258
    40.37600 83781.24504 79760.52061
    40.38000 83752.55059 76263.74474
    40.38400 83725.77103 84611.84198
    40.38800 83701.27549 82524.42587
    40.39200 83679.34947 82419.69113
    40.39600 83660.14970 80507.67873
    40.40000 83643.63575 77483.70533
    40.40400 83629.83105 83415.55163
    40.40800 83618.66737 81084.55523
    40.41200 83610.05381 88629.58717
    40.41600 83603.89218 84078.85977
    40.42000 83600.08743 80052.16742
    40.42400 83598.55435 81384.39586
    40.42800 83599.22111 77847.11632
    40.43200 83602.03189 83329.29598
    40.43600 83606.92503 83209.68431
    40.44000 83613.94376 85525.46925
    40.44400 83623.06082 85535.82143
    40.44800 83634.30118 87313.46606
    40.45200 83647.72597 85390.57226
    40.45600 83663.40215 86883.17365
    40.46000 83681.37979 85251.11312
    40.46400 83701.80159 85309.92575
    40.46800 83724.80713 86111.53171
    40.47200 83750.56223 83561.12283
    40.47600 83779.26092 87558.52564
    40.48000 83811.12804 84283.61858
    40.48400 83846.42270 84535.18734
    40.48800 83885.44295 82766.81889
    40.49200 83928.53183 82317.81182
    40.49600 83976.08516 84366.54687
    40.50000 84028.56111 85245.60545
    40.50400 84086.49155 87243.57014
    40.50800 84150.49336 87131.01670
    40.51200 84221.28539 85268.87468
    40.51600 84299.67334 87404.43572
    40.52000 84386.65238 84924.52702
    40.52400 84483.28497 83877.76644
    40.52800 84590.52644 81920.21493
    40.53200 84710.12809 85489.62710
    40.53600 84843.24922 81353.91379
    40.54000 84990.95482 81746.84875
    40.54400 85153.90891 83059.23632
    40.54800 85331.84335 84832.19738
    40.55200 85522.97828 85583.80676
    40.55600 85723.51023 85295.27921
    40.56000 85927.49060 85142.53481
    40.56400 86127.44096 84246.33666
    40.56800 86315.33185 87713.21994
    40.57200 86483.19002 84379.74607
    40.57600 86622.56687 88315.49229
    40.58000 86723.84562 85975.41097
    40.58400 86778.05061 84316.75326
    40.58800 86780.27297 87570.37462
    40.59200 86732.80817 87441.09156
    40.59600 86642.23386 86252.43394
    40.60000 86517.70482 85321.30636
    40.60400 86368.79568 84052.57193
    40.60800 86203.97741 87216.54565
    40.61200 86031.61986 86577.60380
    40.61600 85860.82986 88436.18126
    40.62000 85700.07092 85178.40785
    40.62400 85554.15271 81963.32207
    40.62800 85423.27479 83547.90698
    40.63200 85304.80672 88217.97364
    40.63600 85195.24503 87698.32180
    40.64000 85091.54416 82988.00243
    40.64400 84991.59392 83816.39833
    40.64800 84894.29504 81102.30689
    40.65200 84799.42198 83663.34133
    40.65600 84707.37508 85510.20309
    40.66000 84618.91660 87464.51534
    40.66400 84534.84980 85979.70051
    40.66800 84456.02705 86020.75421
    40.67200 84382.85448 81703.31216
    40.67600 84315.55840 83336.08040
    40.68000 84254.51307 81994.00905
    40.68400 84199.32585 86772.07637
    40.68800 84149.82906 87673.67261
    40.69200 84105.69744 87404.66923
    40.69600 84066.55952 90709.05194
    40.70000 84031.91164 86243.36962
    40.70400 84001.66764 88956.55497
    40.70800 83975.31783 88791.64094
    40.71200 83952.52752 88754.74024
    40.71600 83932.98926 86977.65605
    40.72000 83916.42379 87569.95945
    40.72400 83902.57475 87980.77855
    40.72800 83891.16381 86972.12648
    40.73200 83882.11548 84410.53488
    40.73600 83875.03370 87740.32322
    40.74000 83870.06505 87951.29050
    40.74400 83867.06439 86665.57816
    40.74800 83865.77943 89511.57912
    40.75200 83866.16410 86992.64602
    40.75600 83868.14690 86936.63918
    40.76000 83871.67149 85381.29232
    40.76400 83876.69554 88351.16128
    40.76800 83883.17632 88532.25695
    40.77200 83891.10861 86163.49382
    40.77600 83900.27672 85504.54573
    40.78000 83911.11381 87467.14148
    40.78400 83923.35391 83981.13602
    40.78800 83937.15603 86959.24750
    40.79200 83952.48247 86938.94808
    40.79600 83969.37602 85414.14504
    40.80000 83987.88826 87902.14848
    40.80400 84008.07937 86508.90282
    40.80800 84030.01796 87919.14822
    40.81200 84053.78087 86718.10234
    40.81600 84079.45295 87803.55351
    40.82000 84107.12688 84472.16645
    40.82400 84136.90287 86187.07987
    40.82800 84168.88817 85509.68729
    40.83200 84203.19596 86402.09805
    40.83600 84239.93538 84937.46432
    40.84000 84279.15167 84952.47695
    40.84400 84321.16524 84576.59848
    40.84800 84366.00355 84515.86661
    40.85200 84413.79579 84414.29561
    40.85600 84464.66156 85214.08325
    40.86000 84518.71544 86948.20932
    40.86400 84575.87786 85406.34452
    40.86800 84636.65239 87504.00150
    40.87200 84700.88338 85539.59292
    40.87600 84768.61015 86619.13375
    40.88000 84839.71224 87770.59931
    40.88400 84914.37641 88827.02200
    40.88800 84992.45201 83668.67598
    40.89200 85073.61205 86855.81185
    40.89600 85157.55748 86677.89744
    40.90000 85243.97425 88190.17918
    40.90400 85332.39159 85413.98010
    40.90800 85422.24060 84502.95730
    40.91200 85512.86283 89458.51151
    40.91600 85603.52942 89937.91406
    40.92000 85693.47277 89426.48265
    40.92400 85781.93194 89682.38232
    40.92800 85868.21276 90835.02482
    40.93200 85951.76212 89719.30815
    40.93600 86032.25572 91927.67689
    40.94000 86109.69785 88867.65588
    40.94400 86184.53242 92278.69356
    40.94800 86257.76368 90084.41445
    40.95200 86331.06895 90201.64696
    40.95600 86407.14550 91952.85582
    40.96000 86489.59730 92569.97258
    40.96400 86583.40121 91573.57772
    40.96800 86695.32897 92565.82402
    40.97200 86833.99841 91596.68361
    40.97600 87010.44571 91491.57460
    40.98000 87238.28985 91705.27421
    40.98400 87533.34500 93351.16570
    40.98800 87911.39132 95844.01598
    40.99200 88381.80930 93694.35011
    40.99600 88935.46531 95429.15897
    41.00000 89531.94287 95110.56097
    41.00400 90101.20269 97389.69102
    41.00800 90567.97379 95480.31392
    41.01200 90879.72742 95484.90311
    41.01600 91013.38739 97545.25739
    41.02000 90964.00516 98554.50046
    41.02400 90733.82028 97536.83489
    41.02800 90331.57275 96710.09292
    41.03200 89782.34317 94970.64738
    41.03600 89138.55512 95513.73764
    41.04000 88475.69915 96082.52899
    41.04400 87866.10089 94988.30759
    41.04800 87352.69528 92750.81477
    41.05200 86945.47618 93168.45580
    41.05600 86634.61673 92866.11656
    41.06000 86403.55836 92015.33221
    41.06400 86235.96874 90099.58543
    41.06800 86118.20093 90231.93396
    41.07200 86039.68382 89189.56221
    41.07600 85992.55771 88353.55850
    41.08000 85971.15439 89858.56929
    41.08400 85971.42308 89185.17488
    41.08800 85990.52225 89541.04199
    41.09200 86026.39422 88755.22727
    41.09600 86077.74319 90260.55436
    41.10000 86143.51759 89696.08444
    41.10400 86223.00842 91392.58215
    41.10800 86315.70228 90886.66805
    41.11200 86421.22478 90381.41853
    41.11600 86539.19664 91265.76067
    41.12000 86669.34270 90471.36563
    41.12400 86811.34979 92126.26097
    41.12800 86964.86742 90129.38233
    41.13200 87129.48867 92559.10648
    41.13600 87304.73999 89390.24230
    41.14000 87490.08149 90579.18415
    41.14400 87684.92016 91751.05671
    41.14800 87888.63821 93846.63260
    41.15200 88100.63931 91873.42467
    41.15600 88320.41260 92026.84402
    41.16000 88547.63834 89185.76432
    41.16400 88782.12548 94929.16393
    41.16800 89024.15181 95624.57898
    41.17200 89274.14137 94780.56139
    41.17600 89532.67936 97433.48723
    41.18000 89800.23373 97790.36942
    41.18400 90076.57545 98396.08128
    41.18800 90360.69149 95777.42530
    41.19200 90650.29612 98533.33446
    41.19600 90941.88491 98398.27750
    41.20000 91230.28450 98564.27715
    41.20400 91507.00312 98958.51238
    41.20800 91757.39319 101454.47942
    41.21200 91959.48989 100288.13403
    41.21600 92088.85513 99993.11345
    41.22000 92127.05037 97920.32538
    41.22400 92066.47975 98379.18562
    41.22800 91908.87608 98984.72476
    41.23200 91661.44196 100802.71431
    41.23600 91334.40740 101025.06312
    41.24000 90941.44089 97663.59893
    41.24400 90501.92822 98159.71344
    41.24800 90041.63129 97544.33972
    41.25200 89587.55805 97493.49135
    41.25600 89159.92827 97689.69857
    41.26000 88768.63031 97153.94592
    41.26400 88415.49834 96207.55579
    41.26800 88098.23603 97517.21870
    41.27200 87813.18241 97051.67352
    41.27600 87556.65946 96206.38775
    41.28000 87325.46280 93558.72525
    41.28400 87116.95939 96648.30669
    41.28800 86929.03447 95259.42904
    41.29200 86759.99507 94609.00485
    41.29600 86608.47284 94817.60559
    41.30000 86473.34136 92628.57824
    41.30400 86353.65095 94490.97724
    41.30800 86248.57849 93853.64834
    41.31200 86157.38865 93623.52243
    41.31600 86079.40199 92790.03697
    41.32000 86013.96639 93752.94316
    41.32400 85960.42842 93257.61624
    41.32800 85918.10305 94438.51574
    41.33200 85886.23516 92887.72496
    41.33600 85863.98032 94698.19602
    41.34000 85850.28682 93702.68718
    41.34400 85844.09474 92351.24254
    41.34800 85843.95444 94823.11451
    41.35200 85848.26096 94050.12043
    41.35600 85855.00027 95952.85826
    41.36000 85862.47081 93952.54690
    41.36400 85868.31089 93370.55476
    41.36800 85870.29012 93781.71107
    41.37200 85866.25598 95520.27992
    41.37600 85854.27238 92986.37660
    41.38000 85832.75717 92896.81724
    41.38400 85800.59916 92834.02724
    41.38800 85757.20635 92584.34044
    41.39200 85702.72147 90870.05076
    41.39600 85637.70452 92155.81437
    41.40000 85563.29171 91791.61009
    41.40400 85480.84578 91477.00373
    41.40800 85392.51531 91035.72042
    41.41200 85300.00490 90754.75814
    41.41600 85205.23156 90290.86574
    41.42000 85109.91138 89955.20783
    41.42400 85015.56573 90645.93135
    41.42800 84923.35234 90453.55621
    41.43200 84834.38616 90782.22694
    41.43600 84749.28032 89604.82528
    41.44000 84668.40634 89490.66981
    41.44400 84592.15708 89252.22448
    41.44800 84520.55387 91655.39971
    41.45200 84453.57302 88579.37407
    41.45600 84391.10637 92186.42371
    41.46000 84332.98818 90686.75462
    41.46400 84279.01612 90600.20503
    41.46800 84228.96710 89212.31087
    41.47200 84182.60900 89035.42939
    41.47600 84139.70909 90339.90081
    41.48000 84100.03994 89499.08178
    41.48400 84063.38347 89043.96349
    41.48800 84029.54002 90506.21893
    41.49200 83998.32853 90757.99822
    41.49600 83969.48753 90520.27531
    41.50000 83942.96471 89972.06047
    41.50400 83918.57006 87639.48784
    41.50800 83896.17189 88762.90202
    41.51200 83875.65330 89028.90385
    41.51600 83856.91172 91328.85562
    41.52000 83839.85834 89009.09607
    41.52400 83824.41748 90290.24310
    41.52800 83810.52606 87977.55586
    41.53200 83798.13272 88412.28744
    41.53600 83787.18707 88787.79047
    41.54000 83777.58339 86542.67501
    41.54400 83769.48471 87707.86610
    41.54800 83762.78919 87716.68201
    41.55200 83757.40923 89140.60257
    41.55600 83753.64805 89612.46549
    41.56000 83751.77368 88888.33883
    41.56400 83750.80849 87816.68853
    41.56800 83751.34443 88430.23863
    41.57200 83753.42664 88916.38884
    41.57600 83757.10766 89480.48339
    41.58000 83762.44651 88645.28552
    41.58400 83769.50750 88495.23436
    41.58800 83778.35849 85292.89943
    41.59200 83789.06870 87688.46234
    41.59600 83801.70589 86655.84546
    41.60000 83816.33295 87665.79707
    41.60400 83833.00402 89655.03024
    41.60800 83851.76032 86513.22473
    41.61200 83872.62598 87048.90272
    41.61600 83895.60414 87790.92116
    41.62000 83920.67353 88657.81670
    41.62400 83947.78525 86896.08154
    41.62800 83976.85902 88411.58435
    41.63200 84007.77699 85986.37596
    41.63600 84040.37270 86504.79584
    41.64000 84074.41124 87966.97120
    41.64400 84109.56610 86108.34280
    41.64800 84145.36447 84199.74487
    41.65200 84181.20205 84671.81617
    41.65600 84216.24781 83204.17419
    41.66000 84249.49671 85676.71743
    41.66400 84279.80841 86679.44317
    41.66800 84306.00529 82441.34308
    41.67200 84327.00378 86192.91834
    41.67600 84341.94917 81867.49989
    41.68000 84350.33175 83239.89688
    41.68400 84351.96517 84882.02674
    41.68800 84347.48170 85928.30229
    41.69200 84337.60690 80633.52680
    41.69600 84323.47713 85692.52803
    41.70000 84306.54344 84126.20787
    41.70400 84288.50078 84482.98974
    41.70800 84270.88783 86812.86227
    41.71200 84255.08030 84238.64363
    41.71600 84242.30953 84764.14845
    41.72000 84233.37294 85786.03020
    41.72400 84228.79143 84439.06588
    41.72800 84228.85159 84559.49521
    41.73200 84233.57229 83286.01600
    41.73600 84242.80724 83360.45658
    41.74000 84256.27083 85781.81125
    41.74400 84273.56899 83133.98544
    41.74800 84294.22213 85316.35710
    41.75200 84317.67936 85611.10279
    41.75600 84343.33913 83813.51981
    41.76000 84370.49957 80258.11617
    41.76400 84398.59924 83357.95207
    41.76800 84426.85912 81334.90896
    41.77200 84454.63378 84397.45216
    41.77600 84481.21815 84258.74114
    41.78000 84505.98156 80863.80988
    41.78400 84528.38054 82223.46026
    41.78800 84548.01087 81354.73310
    41.79200 84564.67078 80204.02898
    41.79600 84578.43014 80090.11141
    41.80000 84589.69642 81643.04904
    41.80400 84599.26996 82124.22108
    41.80800 84608.38465 81746.48851
    41.81200 84618.58351 80925.42495
    41.81600 84631.81055 80851.79360
    41.82000 84649.98376 80705.03963
    41.82400 84674.46454 80919.11333
    41.82800 84705.04392 79348.07165
    41.83200 84738.80657 79889.55730
    41.83600 84769.84417 76095.66057
    41.84000 84790.74702 79931.28553
    41.84400 84795.13990 81071.00223
    41.84800 84779.24582 79413.40801
    41.85200 84741.72983 81443.25594
    41.85600 84682.84664 80201.27419
    41.86000 84604.04398 77441.62473
    41.86400 84508.39132 79859.91311
    41.86800 84401.35724 80888.68527
    41.87200 84290.74006 82283.82041
    41.87600 84184.88480 86226.04638
    41.88000 84090.17539 84372.11191
    41.88400 84009.78284 83521.55823
    41.88800 83944.17372 83319.54650
    41.89200 83892.20252 88195.76013
    41.89600 83852.40293 83672.11404
    41.90000 83822.93592 84200.29949
    41.90400 83802.30026 81549.08209
    41.90800 83789.24161 82242.36184
    41.91200 83782.78129 84981.22761
    41.91600 83781.97763 81767.90195
    41.92000 83786.13242 83003.43071
    41.92400 83794.72541 81476.25586
    41.92800 83807.27104 79784.06448
    41.93200 83823.33306 79845.79478
    41.93600 83842.49956 86009.95257
    41.94000 83864.36401 78737.03518
    41.94400 83888.51165 83290.54264
    41.94800 83914.51111 84608.19456
    41.95200 83941.91122 80908.17964
    41.95600 83970.24316 84032.50246
    41.96000 83999.02809 84863.31897
    41.96400 84027.79084 79375.55864
    41.96800 84056.07935 84933.03678
    41.97200 84083.48978 83429.41311
    41.97600 84109.73111 82645.81828
    41.98000 84134.52061 81926.92377
    41.98400 84157.78692 80549.07036
    41.98800 84179.70171 83517.16471
    41.99200 84200.53834 81709.91258
    41.99600 84220.88042 80235.15938
    42.00000 84241.84718 82933.50053
    42.00400 84263.28653 86197.19510
    42.00800 84286.66674 76144.49467
    42.01200 84312.85698 77765.27665
    42.01600 84342.52771 75786.68337
    42.02000 84376.03606 81309.37047
    42.02400 84413.35224 82933.78838
    42.02800 84453.94124 81299.40245
    42.03200 84496.38904 76745.80810
    42.03600 84537.66326 79564.27772
    42.04000 84572.47630 78765.90403
    42.04400 84593.80501 77315.84968
    42.04800 84594.93886 77267.61034
    42.05200 84571.68141 77860.96535
    42.05600 84523.03255 75416.63486
    42.06000 84450.42853 82339.24287
    42.06400 84356.59525 75179.30171
    42.06800 84245.48165 78212.11258
    42.07200 84122.21900 80079.61996
    42.07600 83993.89654 76388.21623
    42.08000 83868.73547 77732.70381
    42.08400 83754.07034 75504.46647
    42.08800 83654.44196 74551.95349
    42.09200 83571.29704 76779.58105
    42.09600 83503.97947 76792.36571
    42.10000 83450.89274 77651.96079
    42.10400 83410.25106 79142.63970
    42.10800 83380.45049 77969.98107
    42.11200 83360.10489 76637.36450
    42.11600 83348.14172 77811.48959
    42.12000 83343.75767 75509.50946
    42.12400 83346.34498 81620.67662
    42.12800 83355.45777 75047.70088
    42.13200 83370.77824 79491.87044
    42.13600 83392.05226 81949.33138
    42.14000 83419.13867 80047.61194
    42.14400 83451.87062 81017.46361
    42.14800 83490.10199 82048.12210
    42.15200 83533.68277 79156.05330
    42.15600 83582.36854 76463.54999
    42.16000 83635.99609 74642.34648
    42.16400 83694.18529 78529.32071
    42.16800 83756.50158 77680.96774
    42.17200 83822.39295 84819.54051
    42.17600 83891.13948 79583.75846
    42.18000 83962.03447 79632.99787
    42.18400 84034.10200 79340.20048
    42.18800 84106.32126 80357.97068
    42.19200 84177.61710 76755.14499
    42.19600 84246.88522 79419.07783
    42.20000 84313.14848 78094.03946
    42.20400 84375.46052 79972.62420
    42.20800 84433.04376 79248.07516
    42.21200 84485.26919 79476.32845
    42.21600 84531.62483 79023.28145
    42.22000 84571.65455 80252.28571
    42.22400 84604.88900 79425.50413
    42.22800 84630.79178 76830.78305
    42.23200 84648.71516 87661.51013
    42.23600 84657.80634 84679.37847
    42.24000 84656.79650 78794.31992
    42.24400 84643.74657 81155.83156
    42.24800 84616.08583 80742.47761
    42.25200 84571.26005 76979.16738
    42.25600 84507.69692 76961.94883
    42.26000 84425.35072 76909.70469
    42.26400 84325.55901 86864.43497
    42.26800 84210.58464 78275.65352
    42.27200 84083.27486 73525.07249
    42.27600 83947.01199 76937.41791
    42.28000 83805.81926 79253.22495
    42.28400 83664.20704 79501.54797
    42.28800 83526.47007 75532.92644
    42.29200 83395.70829 73402.66524
    42.29600 83273.90911 77650.51066
    42.30000 83161.47389 75782.80810
    42.30400 83058.21917 79179.52985
    42.30800 82963.65134 79285.65139
    42.31200 82877.22043 73562.79616
    42.31600 82798.47156 79960.92661
    42.32000 82727.15019 79805.50542
    42.32400 82663.25695 76539.24193
    42.32800 82607.27847 78159.48998
    42.33200 82558.73646 77703.83368
    42.33600 82515.86514 77130.86461
    42.34000 82475.92535 74301.23753
    42.34400 82437.66410 77971.30024
    42.34800 82401.34527 75442.55540
    42.35200 82367.20227 80795.66524
    42.35600 82335.43465 79691.94938
    42.36000 82305.43469 78332.53952
    42.36400 82276.74624 77991.32968
    42.36800 82249.30681 76725.12150
    42.37200 82224.86384 79933.77719
    42.37600 82205.80893 79317.71878
    42.38000 82192.80432 76281.33273
    42.38400 82185.20226 79538.12965
    42.38800 82182.33765 76738.20192
    42.39200 82183.79287 76424.25248
    42.39600 82189.34292 79290.50533
    42.40000 82198.87285 77182.47036
    42.40400 82212.31953 75930.02404
    42.40800 82229.63622 75169.91191
    42.41200 82250.76995 73791.32416
    42.41600 82275.64442 78346.48073
    42.42000 82304.14493 78204.13416
    42.42400 82336.10391 84710.15750
    42.42800 82371.28729 74242.93443
    42.43200 82409.38217 80183.86341
    42.43600 82449.98722 79669.65574
    42.44000 82492.60719 77738.44650
    42.44400 82536.65349 80774.95789
    42.44800 82581.45106 79523.60861
    42.45200 82626.25345 75789.35446
    42.45600 82670.23299 75960.14858
    42.46000 82712.66005 75174.21658
    42.46400 82752.68768 78838.15357
    42.46800 82789.58105 76747.79313
    42.47200 82822.66215 76517.24037
    42.47600 82851.34183 74349.40152
    42.48000 82875.27832 75617.64931
    42.48400 82894.24295 81854.28894
    42.48800 82908.31792 77171.61241
    42.49200 82917.96361 80128.75417
    42.49600 82924.15269 76677.37267
    42.50000 82928.55536 77446.92783
    42.50400 82933.81388 75854.91581
    42.50800 82943.99601 73292.56934
    42.51200 82965.77020 82021.66429
    42.51600 83008.80200 80009.65164
    42.52000 83090.10392 72119.34460
    42.52400 83238.30580 76276.70861
    42.52800 83497.42105 80214.82947
    42.53200 83921.13332 80839.50804
    42.53600 84527.44134 79466.67431
    42.54000 85210.72793 75599.72544
    42.54400 85773.68101 84086.84980
    42.54800 86122.84632 85997.11798
    42.55200 86282.29153 86766.86990
    42.55600 86290.87068 87130.09654
    42.56000 86159.97782 84711.97350
    42.56400 85868.85058 84063.42305
    42.56800 85380.04700 85551.97341
    42.57200 84698.13735 83254.70957
    42.57600 83956.69381 83002.68019
    42.58000 83349.09705 85217.26013
    42.58400 82940.05787 85312.69219
    42.58800 82688.44471 82203.31795
    42.59200 82541.31662 80703.80839
    42.59600 82461.93310 81082.99569
    42.60000 82428.46834 79403.42890
    42.60400 82428.64688 82653.88130
    42.60800 82455.53196 79698.70450
    42.61200 82504.94330 82080.50177
    42.61600 82574.14536 78992.47551
    42.62000 82660.74988 80477.41508
    42.62400 82762.17197 83130.87770
    42.62800 82875.03482 81441.65007
    42.63200 82994.78529 81228.35092
    42.63600 83115.57668 80236.02900
    42.64000 83230.41742 78575.13360
    42.64400 83331.89547 81486.88347
    42.64800 83412.18986 80333.65677
    42.65200 83463.55624 82182.97799
    42.65600 83478.52331 82061.91048
    42.66000 83451.55174 81452.29074
    42.66400 83379.84970 80348.31345
    42.66800 83264.68360 78744.97407
    42.67200 83110.96941 84556.65440
    42.67600 82926.10357 79924.57839
    42.68000 82718.40336 81508.93183
    42.68400 82497.46959 84447.65634
    42.68800 82272.12865 81703.71010
    42.69200 82051.26734 81968.58073
    42.69600 81842.57701 86104.73867
    42.70000 81651.36559 80050.78210
    42.70400 81480.09610 80166.92286
    42.70800 81328.90554 76456.31719
    42.71200 81196.53038 78993.16118
    42.71600 81081.09249 80536.39409
    42.72000 80980.57015 79927.69581
    42.72400 80893.03870 77958.82678
    42.72800 80816.79013 77388.73792
    42.73200 80750.34361 77094.11446
    42.73600 80692.44570 78680.75647
    42.74000 80642.04287 77478.17505
    42.74400 80598.27206 76457.01532
    42.74800 80560.25793 79497.49677
    42.75200 80527.75892 78187.89669
    42.75600 80500.12056 75551.79865
    42.76000 80476.95106 76893.78294
    42.76400 80457.94012 79729.06473
    42.76800 80442.80045 74494.94988
    42.77200 80431.39806 76688.02450
    42.77600 80423.54835 76870.21111
    42.78000 80419.14448 80780.30207
    42.78400 80418.12386 78513.66772
    42.78800 80420.47065 75631.26547
    42.79200 80426.22134 75146.93849
    42.79600 80435.47340 81203.11354
    42.80000 80448.39764 83126.36228
    42.80400 80465.25364 81559.83921
    42.80800 80486.40623 80899.98093
    42.81200 80512.34942 79668.05061
    42.81600 80543.65933 83082.48328
    42.82000 80581.31101 81170.36148
    42.82400 80626.23136 81731.74214
    42.82800 80679.62139 79991.11495
    42.83200 80742.85112 85112.66260
    42.83600 80817.37760 82720.84932
    42.84000 80904.55144 81422.48820
    42.84400 81005.23562 83294.51058
    42.84800 81119.17917 82638.00457
    42.85200 81244.22545 83046.49350
    42.85600 81375.73020 83215.82712
    42.86000 81506.78987 83385.42974
    42.86400 81629.54247 83185.87887
    42.86800 81736.89976 83020.33618
    42.87200 81823.64158 84200.39282
    42.87600 81886.50627 84605.77118
    42.88000 81923.81197 81330.29917
    42.88400 81935.27998 82586.36787
    42.88800 81922.25731 82075.99567
    42.89200 81887.95376 81745.39162
    42.89600 81837.03630 83940.63719
    42.90000 81774.37199 82722.26541
    42.90400 81703.63449 84701.49296
    42.90800 81626.75302 82757.44659
    42.91200 81544.40532 82688.38386
    42.91600 81457.01408 79428.55699
    42.92000 81365.71331 82061.56340
    42.92400 81273.11622 83484.66171
    42.92800 81183.94248 81215.99903
    42.93200 81105.48806 82779.18239
    42.93600 81047.25346 84605.98430
    42.94000 81017.05308 79059.56391
    42.94400 81010.85344 83549.89580
    42.94800 81007.72476 82342.63617
    42.95200 80986.22271 81681.97151
    42.95600 80940.36026 80431.67410
    42.96000 80874.23728 82174.61663
    42.96400 80791.86722 81606.60651
    42.96800 80692.52568 82364.34015
    42.97200 80572.18837 83856.07006
    42.97600 80428.06950 80087.22069
    42.98000 80269.99895 79735.44423
    42.98400 80122.29102 81086.04812
    42.98800 80004.88718 82815.88647
    42.99200 79920.59219 79911.71847
    42.99600 79862.80760 79899.74074
    43.00000 79824.69449 79326.88200
    43.00400 79801.68255 81354.65856
    43.00800 79791.25831 78437.23108
    43.01200 79792.37123 80988.25255
    43.01600 79804.98846 79556.89083
    43.02000 79829.84327 80053.20014
    43.02400 79868.31527 79939.12703
    43.02800 79922.36928 86151.22775
    43.03200 79994.48600 85310.82456
    43.03600 80087.52241 84618.74051
    43.04000 80204.37644 84788.11335
    43.04400 80347.32225 82284.96625
    43.04800 80516.84432 83649.42984
    43.05200 80709.84940 84509.66045
    43.05600 80917.87369 83873.56275
    43.06000 81126.44157 81909.94093
    43.06400 81316.93117 86222.83329
    43.06800 81470.62595 84589.11578
    43.07200 81572.65125 86508.30122
    43.07600 81613.76527 82550.72844
    43.08000 81590.17596 84206.16671
    43.08400 81502.95846 83502.09468
    43.08800 81358.20424 82667.30038
    43.09200 81167.66547 80825.30925
    43.09600 80948.46549 84717.89283
    43.10000 80720.56786 86041.91000
    43.10400 80502.63164 84843.19762
    43.10800 80308.71754 83624.67204
    43.11200 80147.66330 84346.58003
    43.11600 80024.82186 83520.19180
    43.12000 79944.86147 82469.79665
    43.12400 79914.81885 84098.86283
    43.12800 79947.33564 81105.55696
    43.13200 80063.43335 83866.70445
    43.13600 80294.03732 85976.84216
    43.14000 80671.66309 84545.73587
    43.14400 81196.66916 84273.65566
    43.14800 81785.01871 85721.00274
    43.15200 82292.30447 86914.26484
    43.15600 82630.51770 85933.33156
    43.16000 82794.50509 87468.03966
    43.16400 82803.69694 84768.11492
    43.16800 82665.51108 85503.60206
    43.17200 82368.14017 88193.80438
    43.17600 81893.36527 87167.91665
    43.18000 81258.58809 82403.19259
    43.18400 80566.73297 87331.83337
    43.18800 79958.23677 83645.42503
    43.19200 79497.70051 82744.30460
    43.19600 79170.20145 83057.33768
    43.20000 78938.72133 81558.52998
    43.20400 78771.38892 80827.17605
    43.20800 78646.14825 83502.93395
    43.21200 78549.16568 81206.13682
    43.21600 78471.61128 79430.93913
    43.22000 78407.99336 82082.07867
    43.22400 78354.75807 77530.76567
    43.22800 78309.50558 79954.97916
    43.23200 78270.55490 80325.10786
    43.23600 78236.69520 84815.38705
    43.24000 78207.03576 82542.20503
    43.24400 78180.89499 79114.78743
    43.24800 78157.79212 77773.02392
    43.25200 78137.12912 79813.83569
    43.25600 78119.02609 80035.36803
    43.26000 78103.04176 79195.77637
    43.26400 78088.99687 80890.64719
    43.26800 78076.76184 79304.59650
    43.27200 78066.20124 78788.58584
    43.27600 78057.30442 80529.27202
    43.28000 78049.98710 86278.45852
    43.28400 78044.21607 84678.92833
    43.28800 78039.97335 82430.37159
    43.29200 78037.27949 82852.21470
    43.29600 78036.06100 84699.01939
    43.30000 78036.42193 82516.05399
    43.30400 78038.23013 82989.34407
    43.30800 78041.79721 81474.78381
    43.31200 78047.02072 84142.92534
    43.31600 78053.94946 82342.34255
    43.32000 78062.61515 85206.24658
    43.32400 78073.10540 80718.01940
    43.32800 78085.45922 80448.78862
    43.33200 78099.68324 82314.46832
    43.33600 78115.90437 82062.19436
    43.34000 78134.11610 79868.20399
    43.34400 78154.33983 80646.62274
    43.34800 78176.57781 82434.11666
    43.35200 78200.80696 83746.76248
    43.35600 78226.97167 81438.64191
    43.36000 78254.97596 80557.08594
    43.36400 78284.67511 82841.19223
    43.36800 78315.86736 79826.94712
    43.37200 78348.28563 79267.43599
    43.37600 78381.57568 77843.03514
    43.38000 78415.28319 80272.61748
    43.38400 78448.93010 80818.26873
    43.38800 78482.14637 81912.86369
    43.39200 78514.20117 79459.11334
    43.39600 78544.45024 79850.29872
    43.40000 78572.12891 77825.23672
    43.40400 78596.59543 81408.36953
    43.40800 78617.18822 80323.90926
    43.41200 78633.30116 79882.53195
    43.41600 78644.41346 79589.72287
    43.42000 78650.11486 80501.93178
    43.42400 78650.14090 78965.74036
    43.42800 78644.33833 76250.97790
    43.43200 78632.83466 78477.06044
    43.43600 78615.80889 83979.48083
    43.44000 78593.63402 80776.88265
    43.44400 78566.80725 79802.72364
    43.44800 78535.97111 78783.05934
    43.45200 78501.68994 78728.46079
    43.45600 78464.94700 83446.90122
    43.46000 78426.36725 81155.45928
    43.46400 78386.67479 76648.48058
    43.46800 78346.54411 80796.30493
    43.47200 78306.57838 79384.11688
    43.47600 78267.30474 78311.26784
    43.48000 78229.10112 81115.74042
    43.48400 78192.46238 83157.98642
    43.48800 78157.60139 81269.51865
    43.49200 78124.73328 79829.40442
    43.49600 78094.01537 77312.25628
    43.50000 78065.55724 77729.72637
    43.50400 78039.43035 78809.03994
    43.50800 78015.67669 79050.53976
    43.51200 77994.31646 79276.17342
    43.51600 77975.35454 81474.02135
    43.52000 77958.78565 81318.44782
    43.52400 77944.60053 79932.16587
    43.52800 77932.78294 80510.93266
    43.53200 77923.33272 81201.85058
    43.53600 77916.24048 81468.92279
    43.54000 77911.50849 82403.23157
    43.54400 77909.14570 84275.10661
    43.54800 77909.17254 80743.84730
    43.55200 77911.55603 81734.34585
    43.55600 77915.88199 83072.31251
    43.56000 77923.36347 78340.04160
    43.56400 77933.46406 84143.72125
    43.56800 77946.28113 80328.00348
    43.57200 77961.93056 78304.90788
    43.57600 77980.54753 80538.51848
    43.58000 78002.28699 78085.10304
    43.58400 78027.32368 80556.46968
    43.58800 78055.85171 80414.71739
    43.59200 78088.08327 76953.07903
    43.59600 78124.24642 81135.31118
    43.60000 78164.58144 79094.10996
    43.60400 78209.33515 81227.61658
    43.60800 78258.75235 78328.95712
    43.61200 78313.06310 80235.70545
    43.61600 78372.46397 77830.89985
    43.62000 78437.09140 77875.66880
    43.62400 78506.98546 75094.77061
    43.62800 78582.04419 80534.40471
    43.63200 78661.97242 76999.54500
    43.63600 78746.23432 78887.53694
    43.64000 78834.02515 78742.15489
    43.64400 78924.27895 81628.22964
    43.64800 79015.72331 82672.77929
    43.65200 79106.97709 77978.41708
    43.65600 79196.67223 78712.17823
    43.66000 79283.57266 77689.62924
    43.66400 79366.66939 80923.13979
    43.66800 79445.24235 80074.40202
    43.67200 79518.88681 79489.29818
    43.67600 79587.50299 76218.09176
    43.68000 79651.24727 76876.52596
    43.68400 79710.44943 79415.18375
    43.68800 79765.52524 80984.48150
    43.69200 79816.89616 80317.39776
    43.69600 79865.06300 79354.83805
    43.70000 79910.63526 78594.22305
    43.70400 79954.62347 79006.16263
    43.70800 79998.77249 80619.17123
    43.71200 80046.03993 77643.53713
    43.71600 80101.25953 79081.32669
    43.72000 80172.08808 80367.83206
    43.72400 80270.33513 79962.13761
    43.72800 80413.66201 81229.93285
    43.73200 80627.23129 82224.78397
    43.73600 80943.57759 83074.49854
    43.74000 81395.05196 85626.26723
    43.74400 81988.68699 80122.28299
    43.74800 82666.49419 85277.71759
    43.75200 83307.86003 79080.66250
    43.75600 83803.25933 83875.72351
    43.76000 84107.98089 88382.09236
    43.76400 84222.90784 86999.99721
    43.76800 84155.82478 85807.57759
    43.77200 83903.56326 84936.82538
    43.77600 83457.84631 85453.32552
    43.78000 82835.74442 83824.48875
    43.78400 82117.91582 84574.61670
    43.78800 81431.49515 86864.73514
    43.79200 80870.87583 84357.79007
    43.79600 80458.34624 81931.82056
    43.80000 80171.42691 81084.40085
    43.80400 79977.75786 82431.46076
    43.80800 79850.08743 82805.44983
    43.81200 79768.87877 78949.77296
    43.81600 79721.05862 82310.01922
    43.82000 79698.15635 80417.08677
    43.82400 79694.72695 81733.30135
    43.82800 79707.15854 79089.82060
    43.83200 79732.98365 79107.91483
    43.83600 79770.17394 78081.57916
    43.84000 79816.81650 80481.94916
    43.84400 79871.20978 79832.96175
    43.84800 79930.76094 77005.49821
    43.85200 79992.51774 79081.26857
    43.85600 80052.49591 77332.43927
    43.86000 80105.78007 79112.67794
    43.86400 80146.74144 78087.95209
    43.86800 80170.29169 79669.49245
    43.87200 80172.24633 79465.29465
    43.87600 80150.46983 79761.38905
    43.88000 80104.88383 76227.30663
    43.88400 80037.22024 77352.60851
    43.88800 79950.74717 76628.40363
    43.89200 79850.05265 81029.95017
    43.89600 79740.82535 83410.88821
    43.90000 79629.30440 80047.63269
    43.90400 79521.37135 76409.82682
    43.90800 79421.63161 78677.27974
    43.91200 79332.92171 79904.86104
    43.91600 79256.50478 77817.68858
    43.92000 79192.37224 81324.32799
    43.92400 79139.83203 84014.97019
    43.92800 79097.86024 81893.79718
    43.93200 79065.33866 78835.53899
    43.93600 79041.18526 77582.05399
    43.94000 79024.41679 76498.75555
    43.94400 79014.17274 77818.02635
    43.94800 79009.71870 77217.59622
    43.95200 79010.43921 77394.96380
    43.95600 79015.82576 77485.96646
    43.96000 79025.46300 78512.85385
    43.96400 79039.01112 76317.23556
    43.96800 79056.20777 77509.86825
    43.97200 79076.79400 77343.28480
    43.97600 79100.67697 76903.54996
    43.98000 79127.67997 75643.24479
    43.98400 79157.69219 74238.96242
    43.98800 79190.61892 82848.79745
    43.99200 79226.37957 77178.97211
    43.99600 79264.83273 84325.22491
    44.00000 79305.95739 79868.97711
    44.00400 79349.77757 78969.73756
    44.00800 79396.09484 82288.83471
    44.01200 79444.78993 87305.89219
    44.01600 79495.61260 80884.99104
    44.02000 79548.55433 79666.87528
    44.02400 79603.27187 79815.97585
    44.02800 79659.46323 78819.47032
    44.03200 79716.76594 81739.51637
    44.03600 79774.75534 82303.96037
    44.04000 79832.94724 82313.47006
    44.04400 79890.80603 80060.21267
    44.04800 79947.75906 81370.66063
    44.05200 80003.21727 79094.03270
    44.05600 80056.60156 80794.00825
    44.06000 80107.37314 77083.61805
    44.06400 80155.06388 82079.03384
    44.06800 80199.31247 82000.26058
    44.07200 80239.85356 80092.54219
    44.07600 80276.66652 81334.71664
    44.08000 80309.79065 79055.68406
    44.08400 80339.45549 78972.98509
    44.08800 80366.03628 79893.30929
    44.09200 80390.03384 80454.21932
    44.09600 80412.04793 78053.78005
    44.10000 80432.74729 80244.01331
    44.10400 80452.83986 77909.53331
    44.10800 80473.04667 79088.12589
    44.11200 80494.08238 77187.59755
    44.11600 80516.64472 78963.09848
    44.12000 80541.41347 81843.22915
    44.12400 80569.05753 81120.84402
    44.12800 80600.24426 78383.70615
    44.13200 80635.63262 78470.02068
    44.13600 80675.80308 78840.42135
    44.14000 80721.04600 77021.64094
    44.14400 80771.02195 81106.79764
    44.14800 80824.63915 85214.07480
    44.15200 80880.54914 80093.84828
    44.15600 80937.85530 79919.59968
    44.16000 80996.24006 80946.05166
    44.16400 81055.62001 78813.55789
    44.16800 81115.87680 79594.49561
    44.17200 81176.83029 82752.03349
    44.17600 81238.51875 83924.59332
    44.18000 81301.49593 80916.36474
    44.18400 81366.90545 82705.20362
    44.18800 81435.88949 79403.29199
    44.19200 81508.94067 78825.39099
    44.19600 81586.05642 80418.28306
    44.20000 81666.86374 80942.68453
    44.20400 81751.32891 79269.11153
    44.20800 81839.30336 79107.31599
    44.21200 81930.85461 80022.35773
    44.21600 82026.11097 77448.47605
    44.22000 82125.15484 80723.40325
    44.22400 82227.88030 81638.05018
    44.22800 82333.82465 78603.80224
    44.23200 82441.99682 76635.06628
    44.23600 82550.73906 80352.79537
    44.24000 82657.64838 79640.79372
    44.24400 82759.68127 84682.27898
    44.24800 82853.12117 82572.27592
    44.25200 82933.80007 80700.52213
    44.25600 82997.28208 82768.25792
    44.26000 83039.25637 86035.23284
    44.26400 83056.17570 87391.18127
    44.26800 83045.96707 81294.98297
    44.27200 83008.48190 85864.15172
    44.27600 82945.51451 82973.24666
    44.28000 82860.44044 83077.16688
    44.28400 82757.86438 82502.17446
    44.28800 82643.10816 85488.86638
    44.29200 82521.94320 83250.45505
    44.29600 82400.12769 83255.08947
    44.30000 82282.80985 82815.34064
    44.30400 82173.96618 80528.55656
    44.30800 82076.06953 78932.02768
    44.31200 81990.39309 81198.39429
    44.31600 81917.04712 82444.64122
    44.32000 81855.55343 80905.11239
    44.32400 81805.09003 82860.96167
    44.32800 81764.64846 83800.18954
    44.33200 81732.78017 81266.87016
    44.33600 81709.60946 80789.47538
    44.34000 81693.70033 82584.02984
    44.34400 81684.26500 78440.17221
    44.34800 81680.59650 81631.62088
    44.35200 81682.06705 83964.88243
    44.35600 81688.11808 83249.83413
    44.36000 81698.25002 84032.38275
    44.36400 81712.01099 81875.10963
    44.36800 81728.99054 80464.25632
    44.37200 81748.79543 82014.34711
    44.37600 81771.09117 80717.33765
    44.38000 81795.52811 82464.69470
    44.38400 81821.78577 80044.09260
    44.38800 81849.56237 79548.18366
    44.39200 81878.57947 82761.92086
    44.39600 81908.59028 84145.18334
    44.40000 81939.39182 82724.52595
    44.40400 81970.84030 80318.63917
    44.40800 82002.86909 80316.09556
    44.41200 82035.50770 80182.12124
    44.41600 82068.89974 79543.24630
    44.42000 82103.31696 79735.63471
    44.42400 82139.16462 81155.14231
    44.42800 82176.97125 81566.67818
    44.43200 82217.34995 83912.04790
    44.43600 82260.91218 82414.91663
    44.44000 82308.10627 81237.15926
    44.44400 82358.97570 79376.35491
    44.44800 82412.78666 79160.47671
    44.45200 82468.00841 81046.68733
    44.45600 82521.94477 77787.15465
    44.46000 82571.36016 79978.97703
    44.46400 82613.07232 79707.62528
    44.46800 82644.56177 81870.59196
    44.47200 82664.28819 84371.92869
    44.47600 82671.73887 82919.07426
    44.48000 82667.40025 83624.49920
    44.48400 82652.77804 84485.45515
    44.48800 82630.40325 79950.73759
    44.49200 82603.62361 84071.07666
    44.49600 82576.10785 80817.60910
    44.50000 82551.05871 78956.34070
    44.50400 82530.98389 80202.01996
    44.50800 82517.15884 81704.95315
    44.51200 82510.06509 82316.22193
    44.51600 82509.62099 81885.00506
    44.52000 82515.44533 79700.53287
    44.52400 82527.01670 82213.37573
    44.52800 82543.90314 82798.73782
    44.53200 82565.60512 80882.41770
    44.53600 82591.71826 83943.05588
    44.54000 82621.89785 83567.43285
    44.54400 82655.85168 81579.90444
    44.54800 82693.32867 83534.15224
    44.55200 82734.10571 80361.23386
    44.55600 82777.96876 79975.62656
    44.56000 82824.71892 78203.98773
    44.56400 82874.07578 82354.01510
    44.56800 82925.89425 81622.56349
    44.57200 82979.90805 82238.61627
    44.57600 83035.79029 87630.57557
    44.58000 83093.21130 82339.72424
    44.58400 83151.81023 80961.87171
    44.58800 83211.20090 82813.41591
    44.59200 83270.98179 81528.15092
    44.59600 83330.75048 83081.30255
    44.60000 83390.12247 83458.16609
    44.60400 83448.75411 82391.22166
    44.60800 83506.36780 84812.93186
    44.61200 83562.77650 85673.65593
    44.61600 83617.90207 82674.13469
    44.62000 83671.78017 83325.34868
    44.62400 83724.54208 81267.07451
    44.62800 83776.36035 83807.23476
    44.63200 83827.34743 83408.51004
    44.63600 83877.37550 81180.95854
    44.64000 83925.88086 81013.17471
    44.64400 83971.54936 82599.72147
    44.64800 84012.12902 84032.66755
    44.65200 84044.56669 81953.47392
    44.65600 84065.21328 81710.79319
    44.66000 84070.57184 82480.89287
    44.66400 84057.82855 79645.81621
    44.66800 84025.60608 79006.25096
    44.67200 83973.59100 84329.86119
    44.67600 83902.89266 83571.82940
    44.68000 83815.92316 84896.03646
    44.68400 83716.24458 83219.70828
    44.68800 83608.45008 82556.48057
    44.69200 83497.32138 79173.50679
    44.69600 83387.55683 79412.71954
    44.70000 83282.78893 81018.09316
    44.70400 83185.64415 79989.70593
    44.70800 83097.79667 81783.77748
    44.71200 83020.27977 79944.88265
    44.71600 82953.83122 82744.06388
    44.72000 82899.16395 82426.02922
    44.72400 82857.04364 82935.85922
    44.72800 82827.93491 82675.62049
    44.73200 82810.91646 82577.92555
    44.73600 82802.30824 82270.58224
    44.74000 82795.98526 84082.92260
    44.74400 82786.16107 83069.18379
    44.74800 82769.62765 81278.17631
    44.75200 82745.40075 81660.75522
    44.75600 82713.18365 83139.86917
    44.76000 82672.76944 81602.75805
    44.76400 82623.98322 84372.61283
    44.76800 82568.13072 81244.21398
    44.77200 82509.19025 80781.89575
    44.77600 82452.88454 83355.17700
    44.78000 82403.67573 82981.96221
    44.78400 82363.07807 84225.87809
    44.78800 82330.42017 83748.22219
    44.79200 82304.34991 82799.67208
    44.79600 82283.49668 83956.22865
    44.80000 82266.79153 81948.53595
    44.80400 82253.44839 80739.07052
    44.80800 82242.89988 81070.67018
    44.81200 82234.71929 81974.91359
    44.81600 82228.60826 82207.18525
    44.82000 82224.26200 81280.77986
    44.82400 82221.44573 84465.92079
    44.82800 82219.87212 84623.03958
    44.83200 82219.24654 82391.71552
    44.83600 82219.24318 84835.43569
    44.84000 82219.50159 83047.09209
    44.84400 82219.62755 85982.78818
    44.84800 82219.19820 83939.98030
    44.85200 82217.77060 82368.67694
    44.85600 82214.89318 80593.41975
    44.86000 82210.11946 81860.14975
    44.86400 82203.02465 81429.95094
    44.86800 82193.22636 82545.50170
    44.87200 82180.41336 81603.00933
    44.87600 82164.38722 82562.58566
    44.88000 82145.12430 81514.11026
    44.88400 82122.85697 82555.30800
    44.88800 82098.22739 82428.26670
    44.89200 82072.40516 82294.01224
    44.89600 82047.33507 82533.20335
    44.90000 82025.99819 84169.79964
    44.90400 82012.72912 81614.16352
    44.90800 82013.54520 82009.07082
    44.91200 82036.37681 81750.25898
    44.91600 82090.88245 79852.61871
    44.92000 82187.03360 80951.93267
    44.92400 82330.89838 84209.31408
    44.92800 82516.58835 84080.68006
    44.93200 82718.87516 82450.89004
    44.93600 82897.96062 87437.63170
    44.94000 83017.44583 83855.08231
    44.94400 83057.04340 79898.73436
    44.94800 83010.22252 83683.91239
    44.95200 82876.04671 86532.25299
    44.95600 82654.96649 85296.09635
    44.96000 82351.16898 82689.33508
    44.96400 81980.51677 84303.16769
    44.96800 81575.92272 82660.35950
    44.97200 81178.85080 83724.06761
    44.97600 80820.40120 83309.31328
    44.98000 80512.35037 80347.19422
    44.98400 80252.08437 81445.68645
    44.98800 80031.22368 87873.88782
    44.99200 79840.71311 83125.45997
    44.99600 79672.91708 82881.61076
    45.00000 79522.01879 83386.17887

