
#######################################################################
#
#                 Cambridge Crystallographic Data Centre
#                                CCDC 
#
#######################################################################
#
# If this CIF has been generated from an entry in the Cambridge 
# Structural Database, then it will include bibliographic, chemical, 
# crystal, experimental, refinement or atomic coordinate data resulting 
# from the CCDC's data processing and validation procedures.
#
#######################################################################

data_ARAHIM
_chemical_formula_moiety         '(C8 H8 F6 N4 Nb1 Ni1)n,2n(H2 O1)'
_chemical_name_systematic        
'catena-[bis(\m-pyrazine)-(\m-oxido)-(\m-fluoro)-tetrafluoro-nickel-niobium dihydrate]'
_symmetry_cell_setting           tetragonal
_symmetry_space_group_name_H-M   'I 4/m c m'
_symmetry_Int_Tables_number      140
_space_group_name_Hall           '-I 4 2c'
loop_
_symmetry_equiv_pos_site_id
_symmetry_equiv_pos_as_xyz
1 x,y,z
2 -y,x,z
3 -x,-y,z
4 y,-x,z
5 x,-y,1/2-z
6 -x,y,1/2-z
7 y,x,1/2-z
8 -y,-x,1/2-z
9 1/2+x,1/2+y,1/2+z
10 1/2-y,1/2+x,1/2+z
11 1/2-x,1/2-y,1/2+z
12 1/2+y,1/2-x,1/2+z
13 1/2+x,1/2-y,-z
14 1/2-x,1/2+y,-z
15 1/2+y,1/2+x,-z
16 1/2-y,1/2-x,-z
17 -x,-y,-z
18 y,-x,-z
19 x,y,-z
20 -y,x,-z
21 -x,y,1/2+z
22 x,-y,1/2+z
23 -y,-x,1/2+z
24 y,x,1/2+z
25 1/2-x,1/2-y,1/2-z
26 1/2+y,1/2-x,1/2-z
27 1/2+x,1/2+y,1/2-z
28 1/2-y,1/2+x,1/2-z
29 1/2-x,1/2+y,z
30 1/2+x,1/2-y,z
31 1/2-y,1/2-x,z
32 1/2+y,1/2+x,z
_cell_length_a                   9.942(4)
_cell_length_b                   9.942(4)
_cell_length_c                   15.764(6)
_cell_angle_alpha                90
_cell_angle_beta                 90
_cell_angle_gamma                90
_cell_volume                     1558.17
_exptl_crystal_colour            violet
_exptl_crystal_description       'tetragonal prism'
_cell_formula_units_Z            4
loop_
_atom_site_label
_atom_site_type_symbol
_atom_site_fract_x
_atom_site_fract_y
_atom_site_fract_z
Nb1 Nb 0.0000 0.0000 0.0000
Ni1 Ni 0.0000 0.0000 0.2500
F1 F 0.0000 0.0000 0.1231(4)
F2 F 0.0080(7) 0.1908(4) 0.0000
N1 N 0.1514(3) 0.1514(3) 0.2500
C1 C 0.2421(4) 0.1601(5) 0.3120(3)
H1 H 0.2392 0.0985 0.3564
C2 C 0.1601(5) 0.2421(4) 0.1880(3)
H2 H 0.0985 0.2392 0.1436
N2 N 0.3486(3) 0.3486(3) 0.2500
C3 C 0.2579(4) 0.3399(5) 0.1880(3)
H3 H 0.2608 0.4015 0.1436
C4 C 0.3399(5) 0.2579(4) 0.3120(3)
H4 H 0.4015 0.2608 0.3564
F3 F -0.1908(4) 0.0080(7) 0.0000
N3 N -0.1514(3) 0.1514(3) 0.2500
C5 C -0.1601(5) 0.2421(4) 0.3120(3)
H5 H -0.0985 0.2392 0.3564
C6 C -0.2421(4) 0.1601(5) 0.1880(3)
H6 H -0.2392 0.0985 0.1436
N4 N -0.3486(3) 0.3486(3) 0.2500
C7 C -0.3399(5) 0.2579(4) 0.1880(3)
H7 H -0.4015 0.2608 0.1436
C8 C -0.2579(4) 0.3399(5) 0.3120(3)
H8 H -0.2608 0.4015 0.3564
F4 F -0.0080(7) -0.1908(4) 0.0000
F5 F 0.1908(4) -0.0080(7) 0.0000
F6 F 0.0000 0.0000 0.3769(4)
Nb2 Nb 0.0000 0.0000 0.5000
Ni2 Ni -0.5000 0.5000 0.2500
Ni3 Ni 0.5000 0.5000 0.2500
F7 F 0.0000 0.0000 -0.1231(4)
N5 N -0.1514(3) -0.1514(3) 0.2500
N6 N 0.1514(3) -0.1514(3) 0.2500
loop_
_geom_bond_atom_site_label_1
_geom_bond_atom_site_label_2
_geom_bond_site_symmetry_1
_geom_bond_site_symmetry_2
Nb1 F1 1_555 1_555
Ni1 F1 1_555 1_555
F2 Nb1 1_555 1_555
N1 Ni1 1_555 1_555
C1 N1 1_555 1_555
H1 C1 1_555 1_555
C2 N1 1_555 1_555
H2 C2 1_555 1_555
N2 C3 1_555 1_555
C3 C2 1_555 1_555
H3 C3 1_555 1_555
C4 C1 1_555 1_555
H4 C4 1_555 1_555
F3 Nb1 1_555 1_555
N3 Ni1 1_555 1_555
C5 N3 1_555 1_555
H5 C5 1_555 1_555
C6 N3 1_555 1_555
H6 C6 1_555 1_555
N4 C7 1_555 1_555
C7 C6 1_555 1_555
H7 C7 1_555 1_555
C8 C5 1_555 1_555
H8 C8 1_555 1_555
F4 Nb1 1_555 1_555
F5 Nb1 1_555 1_555
F6 Ni1 1_555 1_555
Nb2 F6 1_555 1_555
Ni2 N4 1_555 1_555
Ni3 N2 1_555 1_555
F7 Nb1 1_555 1_555
N5 Ni1 1_555 1_555
N6 Ni1 1_555 1_555
N2 C4 1_555 1_555
N4 C8 1_555 1_555

#END
