
#######################################################################
#
#                 Cambridge Crystallographic Data Centre
#                                CCDC 
#
#######################################################################
#
# If this CIF has been generated from an entry in the Cambridge 
# Structural Database, then it will include bibliographic, chemical, 
# crystal, experimental, refinement or atomic coordinate data resulting 
# from the CCDC's data processing and validation procedures.
#
#######################################################################

data_LAJKUE
_chemical_formula_moiety         '(C48 H80 Cs2 O40 2+)n,2n(H1 O1 1-)'
_chemical_name_systematic        
'catena-((\m~8~-\g-Cyclodextrin)-di-cesium dihydroxide)'
_symmetry_cell_setting           cubic
_symmetry_space_group_name_H-M   'I 4 3 2'
_symmetry_Int_Tables_number      211
_space_group_name_Hall           'I 4 2 3'
loop_
_symmetry_equiv_pos_site_id
_symmetry_equiv_pos_as_xyz
1 x,y,z
2 -y,x,z
3 x,-y,-z
4 z,x,y
5 -x,-y,z
6 y,x,-z
7 -x,z,y
8 y,-x,z
9 -x,y,-z
10 -z,-x,y
11 -y,-x,-z
12 x,-z,y
13 z,-x,-y
14 -x,-z,-y
15 -z,x,-y
16 x,z,-y
17 y,z,x
18 -z,y,x
19 z,y,-x
20 y,-z,-x
21 -z,-y,-x
22 -y,z,-x
23 -y,-z,x
24 z,-y,x
25 1/2+x,1/2+y,1/2+z
26 1/2-y,1/2+x,1/2+z
27 1/2+x,1/2-y,1/2-z
28 1/2+z,1/2+x,1/2+y
29 1/2-x,1/2-y,1/2+z
30 1/2+y,1/2+x,1/2-z
31 1/2-x,1/2+z,1/2+y
32 1/2+y,1/2-x,1/2+z
33 1/2-x,1/2+y,1/2-z
34 1/2-z,1/2-x,1/2+y
35 1/2-y,1/2-x,1/2-z
36 1/2+x,1/2-z,1/2+y
37 1/2+z,1/2-x,1/2-y
38 1/2-x,1/2-z,1/2-y
39 1/2-z,1/2+x,1/2-y
40 1/2+x,1/2+z,1/2-y
41 1/2+y,1/2+z,1/2+x
42 1/2-z,1/2+y,1/2+x
43 1/2+z,1/2+y,1/2-x
44 1/2+y,1/2-z,1/2-x
45 1/2-z,1/2-y,1/2-x
46 1/2-y,1/2+z,1/2-x
47 1/2-y,1/2-z,1/2+x
48 1/2+z,1/2-y,1/2+x
_cell_length_a                   30.868(10)
_cell_length_b                   30.868(10)
_cell_length_c                   30.868(10)
_cell_angle_alpha                90
_cell_angle_beta                 90
_cell_angle_gamma                90
_cell_volume                     29412.1
_exptl_crystal_colour            colorless
_exptl_crystal_description       platelet
_cell_formula_units_Z            12
loop_
_atom_site_label
_atom_site_type_symbol
_atom_site_fract_x
_atom_site_fract_y
_atom_site_fract_z
Cs1 Cs 0.82142(5) 0.5000 0.82142(5)
O1 O 0.8388(7) 0.6990(4) 0.8620(4)
C1 C 0.8194(7) 0.6590(5) 0.8758(4)
H1 H 0.7877 0.6655 0.8780
O2 O 0.8001(6) 0.5895(3) 0.8636(3)
H2 H 0.8117 0.5813 0.8920
C2 C 0.8221(5) 0.6213(5) 0.8484(4)
H3 H 0.8090 0.6292 0.8198
O3 O 0.8735(6) 0.5826(4) 0.8095(5)
H4 H 0.8735 0.5540 0.8232
C3 C 0.8717(6) 0.6140(6) 0.8407(3)
H5 H 0.8853 0.6029 0.8679
O4 O 0.9364(5) 0.6493(3) 0.8254(3)
C4 C 0.8957(8) 0.6558(5) 0.8257(4)
H6 H 0.8859 0.6635 0.7958
C5 C 0.8835(9) 0.6945(6) 0.8581(6)
O5 O 0.8789(13) 0.7438(9) 0.7965(7)
H7 H 0.9027 0.7443 0.7755
C6 C 0.8978(12) 0.7406(10) 0.8430(17)
H8 H 0.9298 0.7432 0.8427
H9 H 0.8856 0.7633 0.8621
O6 O 0.9834(4) 0.6849(3) 0.7766(3)
C7 C 0.9603(6) 0.6445(5) 0.7829(3)
H10 H 0.9378 0.6427 0.7596
O7 O 0.9552(5) 0.5675(4) 0.7849(5)
H11 H 0.9317 0.5752 0.8048
C8 C 0.9860(6) 0.6059(5) 0.7800(8)
H12 H 0.9985 0.6047 0.7501
O8 O 1.0470(5) 0.5706(5) 0.7979(7)
H13 H 1.0767 0.5772 0.8070
C9 C 1.0194(5) 0.6060(5) 0.8085(5)
H14 H 1.0090 0.6042 0.8391
O9 O 0.8322(3) 0.6489(2) 0.9179(2)
C10 C 1.0494(4) 0.6500(3) 0.8003(3)
H15 H 1.0609 0.6522 0.7701
C11 C 1.0214(7) 0.6818(4) 0.8103(4)
H16 H 1.0104 0.6789 0.8406
O10 O 1.0607(6) 0.7320(5) 0.7578(6)
H17 H 1.0782 0.7582 0.7542
C12 C 1.0419(6) 0.7313(6) 0.8012(5)
H18 H 1.0187 0.7534 0.8035
H19 H 1.0645 0.7380 0.8230
Cs2 Cs 1.17858(5) 0.5000 0.82142(5)
Cs3 Cs 1.0000 0.67858(5) 0.67858(5)
Cs4 Cs 1.32142(5) 0.67858(5) 1.0000
Cs5 Cs 1.17858(5) 0.5000 1.17858(5)
Cs6 Cs 1.0000 0.67858(5) 1.32142(5)
Cs7 Cs 0.82142(5) 0.5000 1.17858(5)
Cs8 Cs 0.67858(5) 0.67858(5) 1.0000
O11 O 1.1380(4) 0.6990(4) 0.8388(7)
O12 O 1.1612(7) 0.6990(4) 1.1380(4)
O13 O 0.8620(4) 0.6990(4) 1.1612(7)
C13 C 1.1242(4) 0.6590(5) 0.8194(7)
C14 C 1.1806(7) 0.6590(5) 1.1242(4)
C15 C 0.8758(4) 0.6590(5) 1.1806(7)
H20 H 1.1220 0.6655 0.7877
H21 H 1.2123 0.6655 1.1220
H22 H 0.8780 0.6655 1.2123
O14 O 1.1364(3) 0.5895(3) 0.8001(6)
O15 O 1.1999(6) 0.5895(3) 1.1364(3)
O16 O 0.8636(3) 0.5895(3) 1.1999(6)
O17 O 0.8636(3) 0.4105(3) 0.8001(6)
O18 O 1.1999(6) 0.4105(3) 0.8636(3)
H23 H 1.1080 0.5813 0.8117
H24 H 1.1883 0.5813 1.1080
H25 H 0.8920 0.5813 1.1883
H26 H 0.8920 0.4187 0.8117
H27 H 1.1883 0.4187 0.8920
C16 C 1.1516(4) 0.6213(5) 0.8221(5)
C17 C 1.1779(5) 0.6213(5) 1.1516(4)
C18 C 0.8484(4) 0.6213(5) 1.1779(5)
H28 H 1.1802 0.6292 0.8090
H29 H 1.1910 0.6292 1.1802
H30 H 0.8198 0.6292 1.1910
O19 O 1.1905(5) 0.5826(4) 0.8735(6)
O20 O 1.1265(6) 0.5826(4) 1.1905(5)
O21 O 0.8095(5) 0.5826(4) 1.1265(6)
O22 O 0.8095(5) 0.4174(4) 0.8735(6)
O23 O 1.1265(6) 0.4174(4) 0.8095(5)
H31 H 1.1768 0.5540 0.8735
H32 H 1.1265 0.5540 1.1768
H33 H 0.8232 0.5540 1.1265
H34 H 0.8232 0.4460 0.8735
H35 H 1.1265 0.4460 0.8232
C19 C 1.1593(3) 0.6140(6) 0.8717(6)
C20 C 1.1283(6) 0.6140(6) 1.1593(3)
C21 C 0.8407(3) 0.6140(6) 1.1283(6)
H36 H 1.1321 0.6029 0.8853
H37 H 1.1147 0.6029 1.1321
H38 H 0.8679 0.6029 1.1147
O24 O 1.1746(3) 0.6493(3) 0.9364(5)
O25 O 1.0636(5) 0.6493(3) 1.1746(3)
O26 O 0.8254(3) 0.6493(3) 1.0636(5)
C22 C 1.1743(4) 0.6558(5) 0.8957(8)
C23 C 1.1043(8) 0.6558(5) 1.1743(4)
C24 C 0.8257(4) 0.6558(5) 1.1043(8)
H39 H 0.7958 0.6635 1.1141
H40 H 1.1141 0.6635 1.2042
H41 H 1.2042 0.6635 0.8859
C25 C 1.1419(6) 0.6945(6) 0.8835(9)
C26 C 1.1165(9) 0.6945(6) 1.1419(6)
C27 C 0.8581(6) 0.6945(6) 1.1165(9)
O27 O 0.7965(7) 0.7438(9) 1.1211(13)
O28 O 1.1211(13) 0.7438(9) 1.2035(7)
O29 O 1.2035(7) 0.7438(9) 0.8789(13)
H42 H 0.7755 0.7443 1.0973
H43 H 1.0973 0.7443 1.2245
H44 H 1.2245 0.7443 0.9027
C28 C 0.8430(17) 0.7406(10) 1.1022(12)
C29 C 1.1022(12) 0.7406(10) 1.1570(17)
C30 C 1.1570(17) 0.7406(10) 0.8978(12)
H45 H 0.8427 0.7432 1.0702
H46 H 1.0702 0.7432 1.1573
H47 H 1.1573 0.7432 0.9298
H48 H 0.8621 0.7633 1.1144
H49 H 1.1144 0.7633 1.1379
H50 H 1.1379 0.7633 0.8856
O30 O 1.2234(3) 0.6849(3) 0.9834(4)
O31 O 1.0166(4) 0.6849(3) 1.2234(3)
O32 O 0.7766(3) 0.6849(3) 1.0166(4)
O33 O 0.8151(3) 0.5166(4) 0.7234(3)
O34 O 0.7234(3) 0.4834(4) 0.8151(3)
O35 O 1.2766(3) 0.5166(4) 0.8151(3)
O36 O 1.1849(3) 0.4834(4) 0.7234(3)
C31 C 1.2171(3) 0.6445(5) 0.9603(6)
C32 C 1.0397(6) 0.6445(5) 1.2171(3)
C33 C 0.7829(3) 0.6445(5) 1.0397(6)
H51 H 1.2404 0.6427 0.9378
H52 H 1.0622 0.6427 1.2404
H53 H 0.7596 0.6427 1.0622
O37 O 1.2151(5) 0.5675(4) 0.9552(5)
O38 O 1.0448(5) 0.5675(4) 1.2151(5)
O39 O 0.7849(5) 0.5675(4) 1.0448(5)
H54 H 1.1952 0.5752 0.9317
H55 H 1.0683 0.5752 1.1952
H56 H 0.8048 0.5752 1.0683
C34 C 1.2200(8) 0.6059(5) 0.9860(6)
C35 C 1.0140(6) 0.6059(5) 1.2200(8)
C36 C 0.7800(8) 0.6059(5) 1.0140(6)
H57 H 1.2499 0.6047 0.9985
H58 H 1.0015 0.6047 1.2499
H59 H 0.7501 0.6047 1.0015
O40 O 1.2021(7) 0.5706(5) 1.0470(5)
O41 O 0.9530(5) 0.5706(5) 1.2021(7)
O42 O 0.7979(7) 0.5706(5) 0.9530(5)
H60 H 1.1930 0.5772 1.0767
H61 H 0.9233 0.5772 1.1930
H62 H 0.8070 0.5772 0.9233
C37 C 1.1915(5) 0.6060(5) 1.0194(5)
C38 C 0.9806(5) 0.6060(5) 1.1915(5)
C39 C 0.8085(5) 0.6060(5) 0.9806(5)
H63 H 1.1609 0.6042 1.0090
H64 H 0.9910 0.6042 1.1609
H65 H 0.8391 0.6042 0.9910
O43 O 1.0821(2) 0.6489(2) 0.8322(3)
O44 O 1.1678(3) 0.6489(2) 1.0821(2)
O45 O 0.9179(2) 0.6489(2) 1.1678(3)
C40 C 1.1997(3) 0.6500(3) 1.0494(4)
C41 C 0.9506(4) 0.6500(3) 1.1997(3)
C42 C 0.8003(3) 0.6500(3) 0.9506(4)
H66 H 0.7701 0.6522 0.9391
H67 H 0.9391 0.6522 1.2299
H68 H 1.2299 0.6522 1.0609
C43 C 1.1897(4) 0.6818(4) 1.0214(7)
C44 C 0.9786(7) 0.6818(4) 1.1897(4)
C45 C 0.8103(4) 0.6818(4) 0.9786(7)
H69 H 0.8406 0.6789 0.9896
H70 H 0.9896 0.6789 1.1594
H71 H 1.1594 0.6789 1.0104
O46 O 0.7578(6) 0.7320(5) 0.9393(6)
O47 O 0.9393(6) 0.7320(5) 1.2422(6)
O48 O 1.2422(6) 0.7320(5) 1.0607(6)
O49 O 0.7680(5) 0.4393(6) 0.7422(6)
O50 O 0.7422(6) 0.5607(6) 0.7680(5)
O51 O 1.2578(6) 0.4393(6) 0.7680(5)
O52 O 1.2320(5) 0.5607(6) 0.7422(6)
H72 H 0.7542 0.7582 0.9218
H73 H 0.9218 0.7582 1.2458
H74 H 1.2458 0.7582 1.0782
H75 H 0.7418 0.4218 0.7458
H76 H 0.7458 0.5782 0.7418
H77 H 1.2542 0.4218 0.7418
H78 H 1.2582 0.5782 0.7458
C46 C 0.8012(5) 0.7313(6) 0.9581(6)
C47 C 0.9581(6) 0.7313(6) 1.1988(5)
C48 C 1.1988(5) 0.7313(6) 1.0419(6)
H79 H 0.8035 0.7534 0.9813
H80 H 0.9813 0.7534 1.1965
H81 H 1.1965 0.7534 1.0187
H82 H 0.8230 0.7380 0.9355
H83 H 0.9355 0.7380 1.1770
H84 H 1.1770 0.7380 1.0645
loop_
_geom_bond_atom_site_label_1
_geom_bond_atom_site_label_2
_geom_bond_site_symmetry_1
_geom_bond_site_symmetry_2
Cs1 O2 1_555 1_555
O1 C1 1_555 1_555
C1 H1 1_555 1_555
O2 H2 1_555 1_555
C2 C1 1_555 1_555
H3 C2 1_555 1_555
O3 Cs1 1_555 1_555
H4 O3 1_555 1_555
C3 C2 1_555 1_555
H5 C3 1_555 1_555
O4 C4 1_555 1_555
C4 C3 1_555 1_555
H6 C4 1_555 1_555
C5 O1 1_555 1_555
O5 H7 1_555 1_555
C6 C5 1_555 1_555
H8 C6 1_555 1_555
H9 C6 1_555 1_555
O6 C7 1_555 1_555
C7 O4 1_555 1_555
H10 C7 1_555 1_555
O7 H11 1_555 1_555
C8 C7 1_555 1_555
H12 C8 1_555 1_555
O8 H13 1_555 1_555
C9 C8 1_555 1_555
H14 C9 1_555 1_555
O9 C1 1_555 1_555
C10 C9 1_555 1_555
H15 C10 1_555 1_555
C11 O6 1_555 1_555
H16 C11 1_555 1_555
O10 H17 1_555 1_555
C12 C11 1_555 1_555
H18 C12 1_555 1_555
H19 C12 1_555 1_555
Cs2 O14 1_555 1_555
Cs3 O6 1_555 1_555
Cs4 O30 1_555 1_555
Cs5 O15 1_555 1_555
Cs6 O31 1_555 1_555
Cs7 O16 1_555 1_555
Cs8 O32 1_555 1_555
O11 C13 1_555 1_555
O12 C14 1_555 1_555
O13 C15 1_555 1_555
C13 H20 1_555 1_555
C14 H21 1_555 1_555
C15 H22 1_555 1_555
O14 H23 1_555 1_555
O15 H24 1_555 1_555
O16 H25 1_555 1_555
O17 Cs1 1_555 1_555
O18 Cs2 1_555 1_555
H26 O17 1_555 1_555
H27 O18 1_555 1_555
C16 C13 1_555 1_555
C17 C14 1_555 1_555
C18 C15 1_555 1_555
H28 C16 1_555 1_555
H29 C17 1_555 1_555
H30 C18 1_555 1_555
O19 Cs2 1_555 1_555
O20 Cs5 1_555 1_555
O21 Cs7 1_555 1_555
O22 Cs1 1_555 1_555
O23 Cs2 1_555 1_555
H31 O19 1_555 1_555
H32 O20 1_555 1_555
H33 O21 1_555 1_555
H34 O22 1_555 1_555
H35 O23 1_555 1_555
C19 C16 1_555 1_555
C20 C17 1_555 1_555
C21 C18 1_555 1_555
H36 C19 1_555 1_555
H37 C20 1_555 1_555
H38 C21 1_555 1_555
O24 C22 1_555 1_555
O25 C23 1_555 1_555
O26 C24 1_555 1_555
C22 C19 1_555 1_555
C23 C20 1_555 1_555
C24 C21 1_555 1_555
H39 C24 1_555 1_555
H40 C23 1_555 1_555
H41 C22 1_555 1_555
C25 O11 1_555 1_555
C26 O12 1_555 1_555
C27 O13 1_555 1_555
O27 H42 1_555 1_555
O28 H43 1_555 1_555
O29 H44 1_555 1_555
C28 C27 1_555 1_555
C29 C26 1_555 1_555
C30 C25 1_555 1_555
H45 C28 1_555 1_555
H46 C29 1_555 1_555
H47 C30 1_555 1_555
H48 C28 1_555 1_555
H49 C29 1_555 1_555
H50 C30 1_555 1_555
O30 C31 1_555 1_555
O31 C32 1_555 1_555
O32 C33 1_555 1_555
O33 Cs1 1_555 1_555
O34 Cs1 1_555 1_555
O35 Cs2 1_555 1_555
O36 Cs2 1_555 1_555
C31 O24 1_555 1_555
C32 O25 1_555 1_555
C33 O26 1_555 1_555
H51 C31 1_555 1_555
H52 C32 1_555 1_555
H53 C33 1_555 1_555
O37 H54 1_555 1_555
O38 H55 1_555 1_555
O39 H56 1_555 1_555
C34 C31 1_555 1_555
C35 C32 1_555 1_555
C36 C33 1_555 1_555
H57 C34 1_555 1_555
H58 C35 1_555 1_555
H59 C36 1_555 1_555
O40 H60 1_555 1_555
O41 H61 1_555 1_555
O42 H62 1_555 1_555
C37 C34 1_555 1_555
C38 C35 1_555 1_555
C39 C36 1_555 1_555
H63 C37 1_555 1_555
H64 C38 1_555 1_555
H65 C39 1_555 1_555
O43 C10 1_555 1_555
O44 C14 1_555 1_555
O45 C15 1_555 1_555
C40 C37 1_555 1_555
C41 C38 1_555 1_555
C42 O9 1_555 1_555
H66 C42 1_555 1_555
H67 C41 1_555 1_555
H68 C40 1_555 1_555
C43 O30 1_555 1_555
C44 O31 1_555 1_555
C45 O32 1_555 1_555
H69 C45 1_555 1_555
H70 C44 1_555 1_555
H71 C43 1_555 1_555
O46 Cs8 1_555 1_555
O47 Cs6 1_555 1_555
O48 Cs4 1_555 1_555
O49 Cs1 1_555 1_555
O50 Cs1 1_555 1_555
O51 Cs2 1_555 1_555
O52 Cs2 1_555 1_555
H72 O46 1_555 1_555
H73 O47 1_555 1_555
H74 O48 1_555 1_555
H75 O49 1_555 1_555
H76 O50 1_555 1_555
H77 O51 1_555 1_555
H78 O52 1_555 1_555
C46 C45 1_555 1_555
C47 C44 1_555 1_555
C48 C43 1_555 1_555
H79 C46 1_555 1_555
H80 C47 1_555 1_555
H81 C48 1_555 1_555
H82 C46 1_555 1_555
H83 C47 1_555 1_555
H84 C48 1_555 1_555
O2 C2 1_555 1_555
O3 C3 1_555 1_555
C4 C5 1_555 1_555
O5 C6 1_555 1_555
O7 C8 1_555 1_555
O8 C9 1_555 1_555
C10 C11 1_555 1_555
O10 C12 1_555 1_555
O10 Cs3 1_555 1_555
C13 O43 1_555 1_555
O14 C16 1_555 1_555
O15 C17 1_555 1_555
O16 C18 1_555 1_555
O19 C19 1_555 1_555
O20 C20 1_555 1_555
O21 C21 1_555 1_555
C22 C25 1_555 1_555
C23 C26 1_555 1_555
C24 C27 1_555 1_555
O27 C28 1_555 1_555
O28 C29 1_555 1_555
O29 C30 1_555 1_555
O37 C34 1_555 1_555
O38 C35 1_555 1_555
O39 C36 1_555 1_555
O40 C37 1_555 1_555
O41 C38 1_555 1_555
O42 C39 1_555 1_555
C39 C42 1_555 1_555
O44 C40 1_555 1_555
O45 C41 1_555 1_555
C40 C43 1_555 1_555
C41 C44 1_555 1_555
C42 C45 1_555 1_555
O46 C46 1_555 1_555
O47 C47 1_555 1_555
O48 C48 1_555 1_555

#END
