
#######################################################################
#
#                 Cambridge Crystallographic Data Centre
#                                CCDC 
#
#######################################################################
#
# If this CIF has been generated from an entry in the Cambridge 
# Structural Database, then it will include bibliographic, chemical, 
# crystal, experimental, refinement or atomic coordinate data resulting 
# from the CCDC's data processing and validation procedures.
#
#######################################################################

data_MESGIB
_chemical_formula_moiety         '(C32 H32 Ag4 N16 4+)n,4n(F6 P1 1-),2n(H2 O1)'
_chemical_name_systematic        
"catena-(octakis(\m~2~-Pyrimidine-N,N')-tetra-silver(i) tetrakis(hexafluorophosphate) dihydrate)"
_symmetry_cell_setting           orthorhombic
_symmetry_space_group_name_H-M   'C m c 21'
_symmetry_Int_Tables_number      36
_space_group_name_Hall           'C 2n -2'
loop_
_symmetry_equiv_pos_site_id
_symmetry_equiv_pos_as_xyz
1 x,y,z
2 -x,-y,1/2+z
3 x,-y,1/2+z
4 -x,y,z
5 1/2+x,1/2+y,z
6 1/2-x,1/2-y,1/2+z
7 1/2+x,1/2-y,1/2+z
8 1/2-x,1/2+y,z
_cell_length_a                   21.8529(6)
_cell_length_b                   15.5019(5)
_cell_length_c                   16.8985(5)
_cell_angle_alpha                90
_cell_angle_beta                 90
_cell_angle_gamma                90
_cell_volume                     5724.56
_exptl_crystal_colour            colorless
_exptl_crystal_description       Needle
_cell_formula_units_Z            4
loop_
_atom_site_label
_atom_site_type_symbol
_atom_site_fract_x
_atom_site_fract_y
_atom_site_fract_z
Ag1 Ag 0.14122(2) 0.29449(4) 0.4534(3)
Ag2 Ag 0.14678(2) -0.03320(4) 0.2401(3)
N1 N 0.1148(3) 0.2368(4) 0.3305(5)
N2 N 0.1106(3) 0.1097(4) 0.2516(5)
N3 N 0.1959(3) 0.1753(4) 0.5202(5)
N4 N 0.1992(3) 0.0863(4) 0.6361(5)
N5 N 0.2313(3) 0.3732(4) 0.4453(5)
N6 N 0.3105(3) 0.4323(4) 0.3667(5)
N7 N 0.0542(2) 0.3195(4) 0.5243(5)
N8 N 0.0548(3) -0.1047(4) 0.2728(5)
C1 C 0.0936(4) 0.2810(5) 0.2707(7)
H1 H 0.0866(4) 0.3411(5) 0.2771(7)
C2 C 0.0808(4) 0.2434(7) 0.1981(7)
H2 H 0.0669(4) 0.2765(7) 0.1543(7)
C3 C 0.0894(4) 0.1569(6) 0.1928(6)
H3 H 0.0795(4) 0.1289(6) 0.1445(6)
C4 C 0.1225(3) 0.1534(6) 0.3184(6)
H4 H 0.1382(3) 0.1208(6) 0.3615(6)
C5 C 0.2556(4) 0.1578(5) 0.5066(6)
H5 H 0.2750(4) 0.1817(5) 0.4613(6)
C6 C 0.2889(4) 0.1059(6) 0.5571(6)
H6 H 0.3309(4) 0.0939(6) 0.5476(6)
C7 C 0.2589(4) 0.0719(5) 0.6220(6)
H7 H 0.2813(4) 0.0370(5) 0.6580(6)
C8 C 0.1718(3) 0.1373(5) 0.5841(6)
H8 H 0.1296(3) 0.1483(5) 0.5934(6)
C9 C 0.2668(4) 0.3813(6) 0.5085(6)
H9 H 0.2521(4) 0.3617(6) 0.5583(6)
C10 C 0.3243(4) 0.4171(6) 0.5043(6)
H10 H 0.3489(4) 0.4253(6) 0.5501(6)
C11 C 0.3442(4) 0.4405(5) 0.4301(5)
H11 H 0.3842(4) 0.4637(5) 0.4248(5)
C12 C 0.2537(4) 0.4010(5) 0.3774(5)
H12 H 0.2276(4) 0.3987(5) 0.3325(5)
C13 C 0.0542(3) 0.3501(6) 0.5974(6)
H13 H 0.0920(3) 0.3614(6) 0.6230(6)
C14 C -0.0000 0.3659(8) 0.6372(8)
H14 H -0.0000 0.3869(8) 0.6900(8)
C15 C -0.0000 0.3054(7) 0.4903(7)
H15 H -0.0000 0.2837(7) 0.4378(7)
C16 C 0.0536(4) -0.1814(5) 0.3100(6)
H16 H 0.0914(4) -0.2080(5) 0.3233(6)
C17 C -0.0000 -0.2231(8) 0.3296(10)
H17 H 0.0000 -0.2776(8) 0.3553(10)
C18 C -0.0000 -0.0696(6) 0.2597(7)
H18 H 0.0000 -0.0129(6) 0.2385(7)
Ag3 Ag -0.14122(2) 0.29449(4) 0.4534(3)
Ag4 Ag 0.14122(2) -0.29449(4) -0.0466(3)
Ag5 Ag 0.35878(2) -0.20551(4) 0.4534(3)
Ag6 Ag 0.14678(2) 0.03320(4) 0.7401(3)
Ag7 Ag 0.35322(2) 0.46680(4) 0.2401(3)
Ag8 Ag -0.14678(2) -0.03320(4) 0.2401(3)
N9 N -0.1148(3) 0.2368(4) 0.3305(5)
N10 N -0.1106(3) 0.1097(4) 0.2516(5)
N11 N 0.1106(3) -0.1097(4) 0.7516(5)
N12 N 0.1959(3) -0.1753(4) 0.0202(5)
N13 N -0.1959(3) 0.1753(4) 0.5202(5)
N14 N 0.1992(3) -0.0863(4) 0.1361(5)
N15 N 0.2687(3) -0.1268(4) 0.4453(5)
N16 N -0.2313(3) 0.3732(4) 0.4453(5)
N17 N 0.1895(3) -0.0677(4) 0.3667(5)
N18 N 0.1895(3) 0.0677(4) 0.8667(5)
N19 N -0.0542(2) 0.3195(4) 0.5243(5)
N20 N -0.0548(3) -0.1047(4) 0.2728(5)
N21 N 0.0548(3) 0.1047(4) 0.7728(5)
C19 C -0.0936(4) 0.2810(5) 0.2707(7)
H19 H -0.0866(4) 0.3411(5) 0.2771(7)
C20 C -0.0808(4) 0.2434(7) 0.1981(7)
H20 H -0.0669(4) 0.2765(7) 0.1543(7)
C21 C -0.0894(4) 0.1569(6) 0.1928(6)
H21 H -0.0795(4) 0.1289(6) 0.1445(6)
C22 C -0.1225(3) 0.1534(6) 0.3184(6)
H22 H -0.1382(3) 0.1208(6) 0.3615(6)
C23 C 0.2556(4) -0.1578(5) 0.0066(6)
H23 H 0.2750(4) -0.1817(5) -0.0387(6)
C24 C 0.2889(4) -0.1059(6) 0.0571(6)
H24 H 0.3309(4) -0.0939(6) 0.0476(6)
C25 C 0.2589(4) -0.0719(5) 0.1220(6)
H25 H 0.2813(4) -0.0370(5) 0.1580(6)
C26 C 0.1718(3) -0.1373(5) 0.0841(6)
H26 H 0.1296(3) -0.1483(5) 0.0934(6)
C27 C 0.2332(4) -0.1187(6) 0.5085(6)
H27 H 0.2479(4) -0.1383(6) 0.5583(6)
C28 C 0.1757(4) -0.0829(6) 0.5043(6)
H28 H 0.1511(4) -0.0747(6) 0.5501(6)
C29 C 0.1558(4) -0.0595(5) 0.4301(5)
H29 H 0.1158(4) -0.0363(5) 0.4248(5)
C30 C 0.2463(4) -0.0990(5) 0.3774(5)
H30 H 0.2724(4) -0.1013(5) 0.3325(5)
C31 C -0.0542(3) 0.3501(6) 0.5974(6)
H31 H -0.0920(3) 0.3614(6) 0.6230(6)
C32 C -0.0536(4) -0.1814(5) 0.3100(6)
H32 H -0.0914(4) -0.2080(5) 0.3233(6)
loop_
_geom_bond_atom_site_label_1
_geom_bond_atom_site_label_2
_geom_bond_site_symmetry_1
_geom_bond_site_symmetry_2
Ag1 N1 1_555 1_555
Ag2 N2 1_555 1_555
N1 C1 1_555 1_555
N2 C3 1_555 1_555
N3 Ag1 1_555 1_555
N4 C7 1_555 1_555
N5 Ag1 1_555 1_555
N6 C11 1_555 1_555
N7 Ag1 1_555 1_555
N8 Ag2 1_555 1_555
C1 H1 1_555 1_555
C2 C1 1_555 1_555
H2 C2 1_555 1_555
C3 C2 1_555 1_555
H3 C3 1_555 1_555
C4 N1 1_555 1_555
H4 C4 1_555 1_555
C5 N3 1_555 1_555
H5 C5 1_555 1_555
C6 C5 1_555 1_555
H6 C6 1_555 1_555
C7 C6 1_555 1_555
H7 C7 1_555 1_555
C8 N3 1_555 1_555
H8 C8 1_555 1_555
C9 N5 1_555 1_555
H9 C9 1_555 1_555
C10 C9 1_555 1_555
H10 C10 1_555 1_555
C11 C10 1_555 1_555
H11 C11 1_555 1_555
C12 N5 1_555 1_555
H12 C12 1_555 1_555
C13 N7 1_555 1_555
H13 C13 1_555 1_555
C14 C13 1_555 1_555
H14 C14 1_555 1_555
C15 N7 1_555 1_555
H15 C15 1_555 1_555
C16 N8 1_555 1_555
H16 C16 1_555 1_555
C17 C16 1_555 1_555
H17 C17 1_555 1_555
C18 N8 1_555 1_555
H18 C18 1_555 1_555
Ag3 N9 1_555 1_555
Ag4 N12 1_555 1_555
Ag5 N15 1_555 1_555
Ag6 N4 1_555 1_555
Ag7 N6 1_555 1_555
Ag8 N10 1_555 1_555
N9 C19 1_555 1_555
N10 C21 1_555 1_555
N11 Ag6 1_555 1_555
N12 C23 1_555 1_555
N13 Ag3 1_555 1_555
N14 Ag2 1_555 1_555
N15 C27 1_555 1_555
N16 Ag3 1_555 1_555
N17 Ag2 1_555 1_555
N18 Ag6 1_555 1_555
N19 C15 1_555 1_555
N20 C18 1_555 1_555
N21 Ag6 1_555 1_555
C19 H19 1_555 1_555
C20 C19 1_555 1_555
H20 C20 1_555 1_555
C21 C20 1_555 1_555
H21 C21 1_555 1_555
C22 N9 1_555 1_555
H22 C22 1_555 1_555
C23 H23 1_555 1_555
C24 C23 1_555 1_555
H24 C24 1_555 1_555
C25 N14 1_555 1_555
H25 C25 1_555 1_555
C26 N12 1_555 1_555
H26 C26 1_555 1_555
C27 H27 1_555 1_555
C28 C27 1_555 1_555
H28 C28 1_555 1_555
C29 N17 1_555 1_555
H29 C29 1_555 1_555
C30 N15 1_555 1_555
H30 C30 1_555 1_555
C31 C14 1_555 1_555
H31 C31 1_555 1_555
C32 C17 1_555 1_555
H32 C32 1_555 1_555
N2 C4 1_555 1_555
N4 C8 1_555 1_555
N6 C12 1_555 1_555
Ag3 N19 1_555 1_555
Ag8 N20 1_555 1_555
N10 C22 1_555 1_555
N14 C26 1_555 1_555
N17 C30 1_555 1_555
N19 C31 1_555 1_555
N20 C32 1_555 1_555
C24 C25 1_555 1_555
C28 C29 1_555 1_555

#END
