
#######################################################################
#
#                 Cambridge Crystallographic Data Centre
#                                CCDC 
#
#######################################################################
#
# If this CIF has been generated from an entry in the Cambridge 
# Structural Database, then it will include bibliographic, chemical, 
# crystal, experimental, refinement or atomic coordinate data resulting 
# from the CCDC's data processing and validation procedures.
#
#######################################################################

data_YOBPOW
_chemical_formula_moiety         
'(C10 H18 N4 O8 Zn1)n,0.666n(C1 H4 O1),0.33n(H2 O1)'
_chemical_name_systematic        
'catena-[bis(\m~2~-2-(glycylamino)-3-hydroxypropanoato)-zinc methanol solvate hydrate]'
_symmetry_cell_setting           orthorhombic
_symmetry_space_group_name_H-M   'P 21 21 2'
_symmetry_Int_Tables_number      18
_space_group_name_Hall           'P 2 2ab'
loop_
_symmetry_equiv_pos_site_id
_symmetry_equiv_pos_as_xyz
1 x,y,z
2 -x,-y,z
3 1/2+x,1/2-y,-z
4 1/2-x,1/2+y,-z
_cell_length_a                   13.8742(6)
_cell_length_b                   14.6060(7)
_cell_length_c                   4.7321(2)
_cell_angle_alpha                90
_cell_angle_beta                 90
_cell_angle_gamma                90
_cell_volume                     958.944
_exptl_crystal_colour            'light colorless'
_exptl_crystal_description       prism
_cell_formula_units_Z            2
_exptl_crystal_recrystallization_method 
'Crystallised directly from synthesis reaction in methanol'
loop_
_atom_site_label
_atom_site_type_symbol
_atom_site_fract_x
_atom_site_fract_y
_atom_site_fract_z
Zn1 Zn -0.0000 -0.0000 1.10280(11)
O1 O 0.0969(3) 0.0396(3) 0.8175(9)
O2 O 0.1307(5) 0.1480(6) 1.1132(15)
O3 O 0.3257(5) 0.2640(4) 0.4241(8)
N1 N 0.2884(3) 0.2022(3) 0.8431(8)
H1 H 0.2932 0.2080 1.0276
N2 N 0.4333(3) 0.4032(3) 0.6643(8)
H2 H 0.3967 0.4308 0.5264
H3 H 0.4787 0.3671 0.5768
C1 C 0.1519(4) 0.0995(4) 0.9075(11)
C2 C 0.2394(3) 0.1222(3) 0.7323(11)
H4 H 0.2195 0.1338 0.5323
C3 C 0.3265(4) 0.2668(4) 0.6820(11)
C4 C 0.3717(5) 0.3464(4) 0.8418(11)
H5 H 0.3198 0.3849 0.9225
H6 H 0.4103 0.3219 1.0007
O4 O 0.2602(17) -0.0269(14) 0.569(5)
H7 H 0.2993 -0.0728 0.6077
C5 C 0.3072(8) 0.0393(7) 0.743(3)
H8 H 0.3716 0.0550 0.6675
H9 H 0.3144 0.0166 0.9394
O5 O -0.0969(3) -0.0396(3) 0.8175(9)
O6 O -0.1307(5) -0.1480(6) 1.1132(15)
O7 O -0.3257(5) -0.2640(4) 0.4241(8)
N3 N -0.2884(3) -0.2022(3) 0.8431(8)
H10 H -0.2932 -0.2080 1.0276
N4 N -0.4333(3) -0.4032(3) 0.6643(8)
H11 H -0.3967 -0.4308 0.5264
H12 H -0.4787 -0.3671 0.5768
C6 C -0.1519(4) -0.0995(4) 0.9075(11)
C7 C -0.2394(3) -0.1222(3) 0.7323(11)
H13 H -0.2195 -0.1338 0.5323
C8 C -0.3265(4) -0.2668(4) 0.6820(11)
C9 C -0.3717(5) -0.3464(4) 0.8418(11)
H14 H -0.3198 -0.3849 0.9225
H15 H -0.4103 -0.3219 1.0007
O8 O -0.2602(17) 0.0269(14) 0.569(5)
H16 H -0.2993 0.0728 0.6077
C10 C -0.3072(8) -0.0393(7) 0.743(3)
H17 H -0.3716 -0.0550 0.6675
H18 H -0.3144 -0.0166 0.9394
Zn2 Zn -0.5000 -0.5000 0.89720(11)
Zn3 Zn 0.5000 0.5000 0.89720(11)
N5 N -0.0667(3) 0.0968(3) 1.3357(8)
N6 N 0.0667(3) -0.0968(3) 1.3357(8)
loop_
_geom_bond_atom_site_label_1
_geom_bond_atom_site_label_2
_geom_bond_site_symmetry_1
_geom_bond_site_symmetry_2
Zn1 O1 1_555 1_555
O1 C1 1_555 1_555
O2 C1 1_555 1_555
O3 C3 1_555 1_555
N1 H1 1_555 1_555
N2 H2 1_555 1_555
H3 N2 1_555 1_555
C1 C2 1_555 1_555
C2 N1 1_555 1_555
H4 C2 1_555 1_555
C3 N1 1_555 1_555
C4 N2 1_555 1_555
H5 C4 1_555 1_555
H6 C4 1_555 1_555
O4 H7 1_555 1_555
C5 C2 1_555 1_555
H8 C5 1_555 1_555
H9 C5 1_555 1_555
O5 Zn1 1_555 1_555
O6 C6 1_555 1_555
O7 C8 1_555 1_555
N3 H10 1_555 1_555
N4 H11 1_555 1_555
H12 N4 1_555 1_555
C6 O5 1_555 1_555
C7 N3 1_555 1_555
H13 C7 1_555 1_555
C8 N3 1_555 1_555
C9 N4 1_555 1_555
H14 C9 1_555 1_555
H15 C9 1_555 1_555
O8 H16 1_555 1_555
C10 C7 1_555 1_555
H17 C10 1_555 1_555
H18 C10 1_555 1_555
Zn2 N4 1_555 1_555
Zn3 N2 1_555 1_555
N5 Zn1 1_555 1_555
N6 Zn1 1_555 1_555
C3 C4 1_555 1_555
O4 C5 1_555 1_555
C6 C7 1_555 1_555
C8 C9 1_555 1_555
O8 C10 1_555 1_555

#END
