
#######################################################################
#
#                 Cambridge Crystallographic Data Centre
#                                CCDC 
#
#######################################################################
#
# If this CIF has been generated from an entry in the Cambridge 
# Structural Database, then it will include bibliographic, chemical, 
# crystal, experimental, refinement or atomic coordinate data resulting 
# from the CCDC's data processing and validation procedures.
#
#######################################################################

data_YOBPUC
_chemical_formula_moiety         '(C10 H18 N4 O8 Zn1)n,1.67n(C1 H4 O1),n(H2 O1)'
_chemical_name_systematic        
'catena-[bis(\m~2~-2-(glycylamino)-3-hydroxypropanoato)-zinc methanol solvate monohydrate]'
_symmetry_cell_setting           orthorhombic
_symmetry_space_group_name_H-M   'P 21 21 2'
_symmetry_Int_Tables_number      18
_space_group_name_Hall           'P 2 2ab'
loop_
_symmetry_equiv_pos_site_id
_symmetry_equiv_pos_as_xyz
1 x,y,z
2 -x,-y,z
3 1/2+x,1/2-y,-z
4 1/2-x,1/2+y,-z
_cell_length_a                   14.0129(10)
_cell_length_b                   14.6036(10)
_cell_length_c                   4.7205(3)
_cell_angle_alpha                90
_cell_angle_beta                 90
_cell_angle_gamma                90
_cell_volume                     965.997
_exptl_crystal_colour            colorless
_exptl_crystal_description       'rectangular prism'
_cell_formula_units_Z            2
loop_
_atom_site_label
_atom_site_type_symbol
_atom_site_fract_x
_atom_site_fract_y
_atom_site_fract_z
Zn1 Zn 1.0000 0.0000 0.59764(9)
O1 O 0.8244(3) 0.2324(2) 1.0759(6)
O2 O 0.6236(2) 0.3439(2) 0.3889(9)
O3 O 0.59486(18) 0.45751(17) 0.6827(6)
N1 N 0.9308(2) 0.09370(18) 0.8346(6)
H1 H 0.8949 0.0645 0.9706
H2 H 0.9744 0.1306 0.9251
N2 N 0.7846(2) 0.29327(18) 0.6541(6)
H3 H 0.7879 0.2867 0.4690
C1 C 0.8241(3) 0.2301(2) 0.8157(7)
C2 C 0.8685(3) 0.1498(3) 0.6561(9)
H4 H 0.8169 0.1109 0.5787
H5 H 0.9060 0.1738 0.4943
C3 C 0.7358(3) 0.3732(2) 0.7667(8)
H6 H 0.7163 0.3601 0.9665
C4 C 0.8014(3) 0.4564(3) 0.7663(12)
H7 H 0.7697 0.5084 0.8622
H8 H 0.8610 0.4421 0.8699
C5 C 0.6476(3) 0.3934(2) 0.5958(8)
O4 O 0.8237(4) 0.4810(3) 0.4694(11)
H9 H 0.8746 0.5113 0.4645
O5 O 1.1756(3) -0.2324(2) 1.0759(6)
O6 O 1.3764(2) -0.3439(2) 0.3889(9)
O7 O 1.40514(18) -0.45751(17) 0.6827(6)
N3 N 1.0692(2) -0.09370(18) 0.8346(6)
H10 H 1.1051 -0.0645 0.9706
H11 H 1.0256 -0.1306 0.9251
N4 N 1.2154(2) -0.29327(18) 0.6541(6)
H12 H 1.2121 -0.2867 0.4690
C6 C 1.1759(3) -0.2301(2) 0.8157(7)
C7 C 1.1315(3) -0.1498(3) 0.6561(9)
H13 H 1.1831 -0.1109 0.5787
H14 H 1.0940 -0.1738 0.4943
C8 C 1.2642(3) -0.3732(2) 0.7667(8)
H15 H 1.2837 -0.3601 0.9665
C9 C 1.1986(3) -0.4564(3) 0.7663(12)
H16 H 1.2303 -0.5084 0.8622
H17 H 1.1390 -0.4421 0.8699
C10 C 1.3524(3) -0.3934(2) 0.5958(8)
O8 O 1.1763(4) -0.4810(3) 0.4694(11)
H18 H 1.1254 -0.5113 0.4645
Zn2 Zn 0.5000 0.5000 0.40236(9)
Zn3 Zn 1.5000 -0.5000 0.40236(9)
O9 O 1.09486(18) 0.04249(17) 0.3173(6)
O10 O 0.90514(18) -0.04249(17) 0.3173(6)
loop_
_geom_bond_atom_site_label_1
_geom_bond_atom_site_label_2
_geom_bond_site_symmetry_1
_geom_bond_site_symmetry_2
Zn1 N1 1_555 1_555
O1 C1 1_555 1_555
O2 C5 1_555 1_555
O3 C5 1_555 1_555
N1 H1 1_555 1_555
H2 N1 1_555 1_555
N2 H3 1_555 1_555
C1 N2 1_555 1_555
C2 N1 1_555 1_555
H4 C2 1_555 1_555
H5 C2 1_555 1_555
C3 N2 1_555 1_555
H6 C3 1_555 1_555
C4 C3 1_555 1_555
H7 C4 1_555 1_555
H8 C4 1_555 1_555
C5 C3 1_555 1_555
O4 C4 1_555 1_555
H9 O4 1_555 1_555
O5 C6 1_555 1_555
O6 C10 1_555 1_555
O7 C10 1_555 1_555
N3 Zn1 1_555 1_555
H10 N3 1_555 1_555
H11 N3 1_555 1_555
N4 H12 1_555 1_555
C6 N4 1_555 1_555
C7 N3 1_555 1_555
H13 C7 1_555 1_555
H14 C7 1_555 1_555
C8 N4 1_555 1_555
H15 C8 1_555 1_555
C9 C8 1_555 1_555
H16 C9 1_555 1_555
H17 C9 1_555 1_555
C10 C8 1_555 1_555
O8 C9 1_555 1_555
H18 O8 1_555 1_555
Zn2 O3 1_555 1_555
Zn3 O7 1_555 1_555
O9 Zn1 1_555 1_555
O10 Zn1 1_555 1_555
C1 C2 1_555 1_555
C6 C7 1_555 1_555

#END
